data_image0
_cell_length_a       8.9364
_cell_length_b       8.9364
_cell_length_c       8.9364
_cell_angle_alpha    60
_cell_angle_beta     60
_cell_angle_gamma    60

_symmetry_space_group_name_H-M    "P 1"
_symmetry_int_tables_number       1

loop_
  _symmetry_equiv_pos_as_xyz
  'x, y, z'

loop_
  _atom_site_label
  _atom_site_occupancy
  _atom_site_fract_x
  _atom_site_fract_y
  _atom_site_fract_z
  _atom_site_thermal_displace_type
  _atom_site_B_iso_or_equiv
  _atom_site_type_symbol
  Cd1      1.0000 0.87500  0.37500  0.37500  Biso   1.000  Cd
  Cd2      1.0000 0.12500  0.62500  0.62500  Biso   1.000  Cd
  C1       1.0000 0.58100  0.47300  0.47300  Biso   1.000  C
  C2       1.0000 0.97300  0.08100  0.47300  Biso   1.000  C
  N1       1.0000 0.97300  0.47300  0.08100  Biso   1.000  N
  N2       1.0000 0.97300  0.47300  0.47300  Biso   1.000  N
  N3       1.0000 0.02700  0.91900  0.52700  Biso   1.000  N
  N4       1.0000 0.41900  0.52700  0.52700  Biso   1.000  N
  C3       1.0000 0.02700  0.52700  0.91900  Biso   1.000  C
  C4       1.0000 0.02700  0.52700  0.52700  Biso   1.000  C
  Cd3      1.0000 0.64427  0.62820  0.56125  Biso   1.000  Cd
  Cd4      1.0000 0.89756  0.88149  0.81454  Biso   1.000  Cd
  C5       1.0000 0.74402  0.32893  0.66101  Biso   1.000  C
  C6       1.0000 0.74402  0.72795  0.66101  Biso   1.000  C
  C7       1.0000 0.34500  0.72795  0.66101  Biso   1.000  C
  C8       1.0000 0.74402  0.72795  0.26199  Biso   1.000  C
  C9       1.0000 0.79780  0.78173  0.71479  Biso   1.000  C
  C10      1.0000 0.79780  0.18075  0.71479  Biso   1.000  C
  C11      1.0000 0.19682  0.78173  0.71479  Biso   1.000  C
  C12      1.0000 0.79780  0.78173  0.11381  Biso   1.000  C
