data_image0
_cell_length_a       18.2016
_cell_length_b       18.2016
_cell_length_c       18.2016
_cell_angle_alpha    60
_cell_angle_beta     60
_cell_angle_gamma    60

_symmetry_space_group_name_H-M    "P 1"
_symmetry_int_tables_number       1

loop_
  _symmetry_equiv_pos_as_xyz
  'x, y, z'

loop_
  _atom_site_label
  _atom_site_occupancy
  _atom_site_fract_x
  _atom_site_fract_y
  _atom_site_fract_z
  _atom_site_thermal_displace_type
  _atom_site_B_iso_or_equiv
  _atom_site_type_symbol
  Zn1      1.0000 0.54338  0.36986  0.54338  Biso   1.000  Zn
  Zn2      1.0000 0.36986  0.54338  0.54338  Biso   1.000  Zn
  Zn3      1.0000 0.54338  0.54338  0.54338  Biso   1.000  Zn
  Zn4      1.0000 0.54338  0.54338  0.36986  Biso   1.000  Zn
  Zn5      1.0000 0.13029  0.95657  0.95657  Biso   1.000  Zn
  Zn6      1.0000 0.95657  0.13029  0.95657  Biso   1.000  Zn
  Zn7      1.0000 0.95657  0.95657  0.13029  Biso   1.000  Zn
  Zn8      1.0000 0.95657  0.95657  0.95657  Biso   1.000  Zn
  H1       1.0000 0.31480  0.09680  0.79420  Biso   1.000  H
  H2       1.0000 0.09680  0.31480  0.79420  Biso   1.000  H
  H3       1.0000 0.79420  0.79420  0.31480  Biso   1.000  H
  H4       1.0000 0.79420  0.79420  0.09680  Biso   1.000  H
  H5       1.0000 0.31480  0.79420  0.79420  Biso   1.000  H
  H6       1.0000 0.09680  0.79420  0.79420  Biso   1.000  H
  H7       1.0000 0.79420  0.31480  0.09680  Biso   1.000  H
  H8       1.0000 0.79420  0.09680  0.31480  Biso   1.000  H
  H9       1.0000 0.31480  0.79420  0.09680  Biso   1.000  H
  H10      1.0000 0.09680  0.79420  0.31480  Biso   1.000  H
  H11      1.0000 0.79420  0.09680  0.79420  Biso   1.000  H
  H12      1.0000 0.79420  0.31480  0.79420  Biso   1.000  H
  C1       1.0000 0.33050  0.21250  0.72850  Biso   1.000  C
  C2       1.0000 0.28810  0.15890  0.77650  Biso   1.000  C
  C3       1.0000 0.21250  0.33050  0.72850  Biso   1.000  C
  C4       1.0000 0.15890  0.28810  0.77650  Biso   1.000  C
  C5       1.0000 0.72850  0.72850  0.33050  Biso   1.000  C
  C6       1.0000 0.77650  0.77650  0.28810  Biso   1.000  C
  C7       1.0000 0.72850  0.72850  0.21250  Biso   1.000  C
  C8       1.0000 0.77650  0.77650  0.15890  Biso   1.000  C
  C9       1.0000 0.33050  0.72850  0.72850  Biso   1.000  C
  C10      1.0000 0.28810  0.77650  0.77650  Biso   1.000  C
  C11      1.0000 0.21250  0.72850  0.72850  Biso   1.000  C
  C12      1.0000 0.15890  0.77650  0.77650  Biso   1.000  C
  C13      1.0000 0.72850  0.33050  0.21250  Biso   1.000  C
  C14      1.0000 0.77650  0.28810  0.15890  Biso   1.000  C
  C15      1.0000 0.72850  0.21250  0.33050  Biso   1.000  C
  C16      1.0000 0.77650  0.15890  0.28810  Biso   1.000  C
  C17      1.0000 0.33050  0.72850  0.21250  Biso   1.000  C
  C18      1.0000 0.28810  0.77650  0.15890  Biso   1.000  C
  C19      1.0000 0.21250  0.72850  0.33050  Biso   1.000  C
  C20      1.0000 0.15890  0.77650  0.28810  Biso   1.000  C
  C21      1.0000 0.72850  0.21250  0.72850  Biso   1.000  C
  C22      1.0000 0.77650  0.15890  0.77650  Biso   1.000  C
  C23      1.0000 0.72850  0.33050  0.72850  Biso   1.000  C
  C24      1.0000 0.77650  0.28810  0.77650  Biso   1.000  C
  C25      1.0000 0.30490  0.30490  0.69510  Biso   1.000  C
  C26      1.0000 0.20070  0.20070  0.79930  Biso   1.000  C
  C27      1.0000 0.13930  0.13930  0.86070  Biso   1.000  C
  C28      1.0000 0.36170  0.36170  0.63830  Biso   1.000  C
  C29      1.0000 0.69510  0.69510  0.30490  Biso   1.000  C
  C30      1.0000 0.79930  0.79930  0.20070  Biso   1.000  C
  C31      1.0000 0.86070  0.86070  0.13930  Biso   1.000  C
  C32      1.0000 0.63830  0.63830  0.36170  Biso   1.000  C
  C33      1.0000 0.30490  0.69510  0.69510  Biso   1.000  C
  C34      1.0000 0.20070  0.79930  0.79930  Biso   1.000  C
  C35      1.0000 0.13930  0.86070  0.86070  Biso   1.000  C
  C36      1.0000 0.36170  0.63830  0.63830  Biso   1.000  C
  C37      1.0000 0.69510  0.30490  0.30490  Biso   1.000  C
  C38      1.0000 0.79930  0.20070  0.20070  Biso   1.000  C
  C39      1.0000 0.86070  0.13930  0.13930  Biso   1.000  C
  C40      1.0000 0.63830  0.36170  0.36170  Biso   1.000  C
  C41      1.0000 0.30490  0.69510  0.30490  Biso   1.000  C
  C42      1.0000 0.20070  0.79930  0.20070  Biso   1.000  C
  C43      1.0000 0.13930  0.86070  0.13930  Biso   1.000  C
  C44      1.0000 0.36170  0.63830  0.36170  Biso   1.000  C
  C45      1.0000 0.69510  0.30490  0.69510  Biso   1.000  C
  C46      1.0000 0.79930  0.20070  0.79930  Biso   1.000  C
  C47      1.0000 0.86070  0.13930  0.86070  Biso   1.000  C
  C48      1.0000 0.63830  0.36170  0.63830  Biso   1.000  C
  O1       1.0000 0.17850  0.05170  0.88490  Biso   1.000  O
  O2       1.0000 0.44150  0.32470  0.61690  Biso   1.000  O
  O3       1.0000 0.05170  0.17850  0.88490  Biso   1.000  O
  O4       1.0000 0.32470  0.44150  0.61690  Biso   1.000  O
  O5       1.0000 0.88490  0.88490  0.17850  Biso   1.000  O
  O6       1.0000 0.61690  0.61690  0.44150  Biso   1.000  O
  O7       1.0000 0.88490  0.88490  0.05170  Biso   1.000  O
  O8       1.0000 0.61690  0.61690  0.32470  Biso   1.000  O
  O9       1.0000 0.17850  0.88490  0.88490  Biso   1.000  O
  O10      1.0000 0.44150  0.61690  0.61690  Biso   1.000  O
  O11      1.0000 0.05170  0.88490  0.88490  Biso   1.000  O
  O12      1.0000 0.32470  0.61690  0.61690  Biso   1.000  O
  O13      1.0000 0.88490  0.17850  0.05170  Biso   1.000  O
  O14      1.0000 0.61690  0.44150  0.32470  Biso   1.000  O
  O15      1.0000 0.88490  0.05170  0.17850  Biso   1.000  O
  O16      1.0000 0.61690  0.32470  0.44150  Biso   1.000  O
  O17      1.0000 0.17850  0.88490  0.05170  Biso   1.000  O
  O18      1.0000 0.44150  0.61690  0.32470  Biso   1.000  O
  O19      1.0000 0.05170  0.88490  0.17850  Biso   1.000  O
  O20      1.0000 0.32470  0.61690  0.44150  Biso   1.000  O
  O21      1.0000 0.88490  0.05170  0.88490  Biso   1.000  O
  O22      1.0000 0.61690  0.32470  0.61690  Biso   1.000  O
  O23      1.0000 0.88490  0.17850  0.88490  Biso   1.000  O
  O24      1.0000 0.61690  0.44150  0.61690  Biso   1.000  O
  O25      1.0000 0.00000  0.00000  0.00000  Biso   1.000  O
  O26      1.0000 0.50000  0.50000  0.50000  Biso   1.000  O
  Cu1      1.0000 0.99464  0.45860  0.54261  Biso   1.000  Cu
  Cu2      1.0000 0.43073  0.02251  0.96264  Biso   1.000  Cu
  Cu3      1.0000 0.57460  0.02251  0.96264  Biso   1.000  Cu
  Cu4      1.0000 0.99464  0.60247  0.39873  Biso   1.000  Cu
  Cu5      1.0000 0.99464  0.60247  0.96264  Biso   1.000  Cu
  Cu6      1.0000 0.43073  0.02251  0.54261  Biso   1.000  Cu
  Cu7      1.0000 0.57460  0.02251  0.39873  Biso   1.000  Cu
  Cu8      1.0000 0.99464  0.45860  0.96264  Biso   1.000  Cu
  Cu9      1.0000 0.99464  0.02251  0.39873  Biso   1.000  Cu
  Cu10     1.0000 0.43073  0.60247  0.96264  Biso   1.000  Cu
  Cu11     1.0000 0.57460  0.45860  0.96264  Biso   1.000  Cu
  Cu12     1.0000 0.99464  0.02251  0.54261  Biso   1.000  Cu
  H13      1.0000 0.97422  0.29938  0.46142  Biso   1.000  H
  H14      1.0000 0.27152  0.00208  0.23952  Biso   1.000  H
  H15      1.0000 0.49342  0.29938  0.94222  Biso   1.000  H
  H16      1.0000 0.27152  0.52129  0.23952  Biso   1.000  H
  H17      1.0000 0.97422  0.52129  0.23952  Biso   1.000  H
  H18      1.0000 0.27152  0.29938  0.46142  Biso   1.000  H
  H19      1.0000 0.49342  0.00208  0.23952  Biso   1.000  H
  H20      1.0000 0.27152  0.29938  0.94222  Biso   1.000  H
  H21      1.0000 0.97422  0.29938  0.23952  Biso   1.000  H
  H22      1.0000 0.27152  0.52129  0.94222  Biso   1.000  H
  H23      1.0000 0.49342  0.29938  0.23952  Biso   1.000  H
  H24      1.0000 0.27152  0.00208  0.46142  Biso   1.000  H
  H25      1.0000 0.73382  0.05898  0.47991  Biso   1.000  H
  H26      1.0000 0.03112  0.76169  0.70182  Biso   1.000  H
  H27      1.0000 0.73382  0.53978  0.99912  Biso   1.000  H
  H28      1.0000 0.51191  0.76169  0.70182  Biso   1.000  H
  H29      1.0000 0.51191  0.05898  0.70182  Biso   1.000  H
  H30      1.0000 0.73382  0.76169  0.47991  Biso   1.000  H
  H31      1.0000 0.03112  0.53978  0.70182  Biso   1.000  H
  H32      1.0000 0.73382  0.76169  0.99912  Biso   1.000  H
  H33      1.0000 0.73382  0.05898  0.70182  Biso   1.000  H
  H34      1.0000 0.51191  0.76169  0.99912  Biso   1.000  H
  H35      1.0000 0.73382  0.53978  0.70182  Biso   1.000  H
  H36      1.0000 0.03112  0.76169  0.47991  Biso   1.000  H
  C49      1.0000 0.97381  0.32986  0.40087  Biso   1.000  C
  C50      1.0000 0.30200  0.00168  0.27000  Biso   1.000  C
  C51      1.0000 0.43287  0.32986  0.94181  Biso   1.000  C
  C52      1.0000 0.30200  0.46073  0.27000  Biso   1.000  C
  C53      1.0000 0.97381  0.46073  0.27000  Biso   1.000  C
  C54      1.0000 0.30200  0.32986  0.40087  Biso   1.000  C
  C55      1.0000 0.43287  0.00168  0.27000  Biso   1.000  C
  C56      1.0000 0.30200  0.32986  0.94181  Biso   1.000  C
  C57      1.0000 0.97381  0.32986  0.27000  Biso   1.000  C
  C58      1.0000 0.30200  0.46073  0.94181  Biso   1.000  C
  C59      1.0000 0.43287  0.32986  0.27000  Biso   1.000  C
  C60      1.0000 0.30200  0.00168  0.40087  Biso   1.000  C
  C61      1.0000 0.70334  0.05939  0.54047  Biso   1.000  C
  C62      1.0000 0.03153  0.73120  0.67134  Biso   1.000  C
  C63      1.0000 0.70334  0.60034  0.99953  Biso   1.000  C
  C64      1.0000 0.57247  0.73120  0.67134  Biso   1.000  C
  C65      1.0000 0.57247  0.05939  0.67134  Biso   1.000  C
  C66      1.0000 0.70334  0.73120  0.54047  Biso   1.000  C
  C67      1.0000 0.03153  0.60034  0.67134  Biso   1.000  C
  C68      1.0000 0.70334  0.73120  0.99953  Biso   1.000  C
  C69      1.0000 0.70334  0.05939  0.67134  Biso   1.000  C
  C70      1.0000 0.57247  0.73120  0.99953  Biso   1.000  C
  C71      1.0000 0.70334  0.60034  0.67134  Biso   1.000  C
  C72      1.0000 0.03153  0.73120  0.54047  Biso   1.000  C
  C73      1.0000 0.97259  0.41785  0.35799  Biso   1.000  C
  C74      1.0000 0.98773  0.46002  0.40015  Biso   1.000  C
  C75      1.0000 0.38999  0.00046  0.22611  Biso   1.000  C
  C76      1.0000 0.43215  0.01560  0.12663  Biso   1.000  C
  C77      1.0000 0.38999  0.28597  0.94059  Biso   1.000  C
  C78      1.0000 0.43215  0.18650  0.95573  Biso   1.000  C
  C79      1.0000 0.25810  0.41785  0.35799  Biso   1.000  C
  C80      1.0000 0.15863  0.46002  0.40015  Biso   1.000  C
  C81      1.0000 0.97259  0.41785  0.22611  Biso   1.000  C
  C82      1.0000 0.98773  0.46002  0.12663  Biso   1.000  C
  C83      1.0000 0.38999  0.28597  0.35799  Biso   1.000  C
  C84      1.0000 0.43215  0.18650  0.40015  Biso   1.000  C
  C85      1.0000 0.38999  0.00046  0.35799  Biso   1.000  C
  C86      1.0000 0.43215  0.01560  0.40015  Biso   1.000  C
  C87      1.0000 0.25810  0.41785  0.94059  Biso   1.000  C
  C88      1.0000 0.15863  0.46002  0.95573  Biso   1.000  C
  C89      1.0000 0.97259  0.28597  0.35799  Biso   1.000  C
  C90      1.0000 0.98773  0.18650  0.40015  Biso   1.000  C
  C91      1.0000 0.38999  0.41785  0.94059  Biso   1.000  C
  C92      1.0000 0.43215  0.46002  0.95573  Biso   1.000  C
  C93      1.0000 0.38999  0.41785  0.22611  Biso   1.000  C
  C94      1.0000 0.43215  0.46002  0.12663  Biso   1.000  C
  C95      1.0000 0.25810  0.00046  0.35799  Biso   1.000  C
  C96      1.0000 0.15863  0.01560  0.40015  Biso   1.000  C
  C97      1.0000 0.61535  0.06061  0.58335  Biso   1.000  C
  C98      1.0000 0.57318  0.04547  0.54118  Biso   1.000  C
  C99      1.0000 0.03274  0.64321  0.71523  Biso   1.000  C
  C100     1.0000 0.01761  0.60105  0.81470  Biso   1.000  C
  C101     1.0000 0.74723  0.64321  0.00074  Biso   1.000  C
  C102     1.0000 0.84670  0.60105  0.98561  Biso   1.000  C
  C103     1.0000 0.61535  0.77510  0.58335  Biso   1.000  C
  C104     1.0000 0.57318  0.87457  0.54118  Biso   1.000  C
  C105     1.0000 0.61535  0.06061  0.71523  Biso   1.000  C
  C106     1.0000 0.57318  0.04547  0.81470  Biso   1.000  C
  C107     1.0000 0.74723  0.64321  0.58335  Biso   1.000  C
  C108     1.0000 0.84670  0.60105  0.54118  Biso   1.000  C
  C109     1.0000 0.03274  0.64321  0.58335  Biso   1.000  C
  C110     1.0000 0.01761  0.60105  0.54118  Biso   1.000  C
  C111     1.0000 0.61535  0.77510  0.00074  Biso   1.000  C
  C112     1.0000 0.57318  0.87457  0.98561  Biso   1.000  C
  C113     1.0000 0.74723  0.06061  0.58335  Biso   1.000  C
  C114     1.0000 0.84670  0.04547  0.54118  Biso   1.000  C
  C115     1.0000 0.61535  0.64321  0.00074  Biso   1.000  C
  C116     1.0000 0.57318  0.60105  0.98561  Biso   1.000  C
  C117     1.0000 0.61535  0.64321  0.71523  Biso   1.000  C
  C118     1.0000 0.57318  0.60105  0.81470  Biso   1.000  C
  C119     1.0000 0.03274  0.77510  0.58335  Biso   1.000  C
  C120     1.0000 0.01761  0.87457  0.54118  Biso   1.000  C
  O27      1.0000 0.98997  0.41592  0.48022  Biso   1.000  O
  O28      1.0000 0.38806  0.01783  0.08843  Biso   1.000  O
  O29      1.0000 0.51222  0.14830  0.95797  Biso   1.000  O
  O30      1.0000 0.12043  0.54009  0.35606  Biso   1.000  O
  O31      1.0000 0.98997  0.54009  0.08843  Biso   1.000  O
  O32      1.0000 0.38806  0.14830  0.48022  Biso   1.000  O
  O33      1.0000 0.51222  0.01783  0.35606  Biso   1.000  O
  O34      1.0000 0.12043  0.41592  0.95797  Biso   1.000  O
  O35      1.0000 0.98997  0.14830  0.35606  Biso   1.000  O
  O36      1.0000 0.38806  0.54009  0.95797  Biso   1.000  O
  O37      1.0000 0.51222  0.41592  0.08843  Biso   1.000  O
  O38      1.0000 0.12043  0.01783  0.48022  Biso   1.000  O
  O39      1.0000 0.61728  0.04324  0.46112  Biso   1.000  O
  O40      1.0000 0.01537  0.64514  0.85291  Biso   1.000  O
  O41      1.0000 0.88491  0.52098  0.98337  Biso   1.000  O
  O42      1.0000 0.49312  0.91277  0.58528  Biso   1.000  O
  O43      1.0000 0.49312  0.04324  0.85291  Biso   1.000  O
  O44      1.0000 0.88491  0.64514  0.46112  Biso   1.000  O
  O45      1.0000 0.01537  0.52098  0.58528  Biso   1.000  O
  O46      1.0000 0.61728  0.91277  0.98337  Biso   1.000  O
  O47      1.0000 0.88491  0.04324  0.58528  Biso   1.000  O
  O48      1.0000 0.49312  0.64514  0.98337  Biso   1.000  O
  O49      1.0000 0.61728  0.52098  0.85291  Biso   1.000  O
  O50      1.0000 0.01537  0.91277  0.46112  Biso   1.000  O
  O51      1.0000 0.01537  0.64514  0.46112  Biso   1.000  O
  O52      1.0000 0.61728  0.04324  0.85291  Biso   1.000  O
  O53      1.0000 0.49312  0.91277  0.98337  Biso   1.000  O
  O54      1.0000 0.88491  0.52098  0.58528  Biso   1.000  O
  O55      1.0000 0.01537  0.52098  0.85291  Biso   1.000  O
  O56      1.0000 0.61728  0.91277  0.46112  Biso   1.000  O
  O57      1.0000 0.49312  0.04324  0.58528  Biso   1.000  O
  O58      1.0000 0.88491  0.64514  0.98337  Biso   1.000  O
  O59      1.0000 0.01537  0.91277  0.58528  Biso   1.000  O
  O60      1.0000 0.61728  0.52098  0.98337  Biso   1.000  O
  O61      1.0000 0.49312  0.64514  0.85291  Biso   1.000  O
  O62      1.0000 0.88491  0.04324  0.46112  Biso   1.000  O
  O63      1.0000 0.38806  0.01783  0.48022  Biso   1.000  O
  O64      1.0000 0.98997  0.41592  0.08843  Biso   1.000  O
  O65      1.0000 0.12043  0.54009  0.95797  Biso   1.000  O
  O66      1.0000 0.51222  0.14830  0.35606  Biso   1.000  O
  O67      1.0000 0.51222  0.01783  0.08843  Biso   1.000  O
  O68      1.0000 0.12043  0.41592  0.48022  Biso   1.000  O
  O69      1.0000 0.98997  0.54009  0.35606  Biso   1.000  O
  O70      1.0000 0.38806  0.14830  0.95797  Biso   1.000  O
  O71      1.0000 0.12043  0.01783  0.35606  Biso   1.000  O
  O72      1.0000 0.51222  0.41592  0.95797  Biso   1.000  O
  O73      1.0000 0.38806  0.54009  0.08843  Biso   1.000  O
  O74      1.0000 0.98997  0.14830  0.48022  Biso   1.000  O
