data_image0
_cell_length_a       19.905
_cell_length_b       20.55
_cell_length_c       20.55
_cell_angle_alpha    90
_cell_angle_beta     90
_cell_angle_gamma    90

_symmetry_space_group_name_H-M    "P 1"
_symmetry_int_tables_number       1

loop_
  _symmetry_equiv_pos_as_xyz
  'x, y, z'

loop_
  _atom_site_label
  _atom_site_occupancy
  _atom_site_fract_x
  _atom_site_fract_y
  _atom_site_fract_z
  _atom_site_thermal_displace_type
  _atom_site_B_iso_or_equiv
  _atom_site_type_symbol
  C1       1.0000 0.50000  0.40588  0.59412  Biso   1.000  C
  C2       1.0000 0.50000  0.59412  0.59412  Biso   1.000  C
  C3       1.0000 0.00000  0.50000  0.00000  Biso   1.000  C
  C4       1.0000 0.50000  0.59412  0.40588  Biso   1.000  C
  C5       1.0000 0.00000  0.00000  0.50000  Biso   1.000  C
  C6       1.0000 0.50000  0.40588  0.40588  Biso   1.000  C
  C7       1.0000 0.72520  0.74910  0.59860  Biso   1.000  C
  C8       1.0000 0.81340  0.17550  0.40140  Biso   1.000  C
  C9       1.0000 0.74950  0.06120  0.50000  Biso   1.000  C
  C10      1.0000 0.06260  0.75650  0.50000  Biso   1.000  C
  C11      1.0000 0.72520  0.59860  0.25090  Biso   1.000  C
  C12      1.0000 0.00000  0.50000  0.05700  Biso   1.000  C
  C13      1.0000 0.27480  0.74910  0.59860  Biso   1.000  C
  C14      1.0000 0.00000  0.50000  0.94300  Biso   1.000  C
  C15      1.0000 0.81340  0.40140  0.17550  Biso   1.000  C
  C16      1.0000 0.18660  0.59860  0.17550  Biso   1.000  C
  C17      1.0000 0.18660  0.82450  0.40140  Biso   1.000  C
  C18      1.0000 0.81340  0.59860  0.82450  Biso   1.000  C
  C19      1.0000 0.18660  0.82450  0.59860  Biso   1.000  C
  C20      1.0000 0.81340  0.40140  0.82450  Biso   1.000  C
  C21      1.0000 0.74950  0.50000  0.06120  Biso   1.000  C
  C22      1.0000 0.00000  0.05700  0.50000  Biso   1.000  C
  C23      1.0000 0.18660  0.17550  0.59860  Biso   1.000  C
  C24      1.0000 0.27480  0.74910  0.40140  Biso   1.000  C
  C25      1.0000 0.25050  0.06120  0.50000  Biso   1.000  C
  C26      1.0000 0.72520  0.74910  0.40140  Biso   1.000  C
  C27      1.0000 0.72520  0.25090  0.40140  Biso   1.000  C
  C28      1.0000 0.27480  0.40140  0.25090  Biso   1.000  C
  C29      1.0000 0.93740  0.24350  0.50000  Biso   1.000  C
  C30      1.0000 0.06260  0.50000  0.75650  Biso   1.000  C
  C31      1.0000 0.74950  0.93880  0.50000  Biso   1.000  C
  C32      1.0000 0.94160  0.50000  0.00000  Biso   1.000  C
  C33      1.0000 0.25050  0.50000  0.93880  Biso   1.000  C
  C34      1.0000 0.06260  0.50000  0.24350  Biso   1.000  C
  C35      1.0000 0.27480  0.59860  0.74910  Biso   1.000  C
  C36      1.0000 0.81340  0.82450  0.59860  Biso   1.000  C
  C37      1.0000 0.05840  0.00000  0.50000  Biso   1.000  C
  C38      1.0000 0.81340  0.82450  0.40140  Biso   1.000  C
  C39      1.0000 0.81340  0.59860  0.17550  Biso   1.000  C
  C40      1.0000 0.25050  0.50000  0.06120  Biso   1.000  C
  C41      1.0000 0.18660  0.17550  0.40140  Biso   1.000  C
  C42      1.0000 0.00000  0.94300  0.50000  Biso   1.000  C
  C43      1.0000 0.27480  0.25090  0.40140  Biso   1.000  C
  C44      1.0000 0.93740  0.50000  0.24350  Biso   1.000  C
  C45      1.0000 0.27480  0.40140  0.74910  Biso   1.000  C
  C46      1.0000 0.05840  0.50000  0.00000  Biso   1.000  C
  C47      1.0000 0.27480  0.25090  0.59860  Biso   1.000  C
  C48      1.0000 0.72520  0.40140  0.74910  Biso   1.000  C
  C49      1.0000 0.72520  0.59860  0.74910  Biso   1.000  C
  C50      1.0000 0.93740  0.50000  0.75650  Biso   1.000  C
  C51      1.0000 0.06260  0.24350  0.50000  Biso   1.000  C
  C52      1.0000 0.74950  0.50000  0.93880  Biso   1.000  C
  C53      1.0000 0.94160  0.00000  0.50000  Biso   1.000  C
  C54      1.0000 0.72520  0.40140  0.25090  Biso   1.000  C
  C55      1.0000 0.81340  0.17550  0.59860  Biso   1.000  C
  C56      1.0000 0.27480  0.59860  0.25090  Biso   1.000  C
  C57      1.0000 0.18660  0.59860  0.82450  Biso   1.000  C
  C58      1.0000 0.18660  0.40140  0.82450  Biso   1.000  C
  C59      1.0000 0.72520  0.25090  0.59860  Biso   1.000  C
  C60      1.0000 0.93740  0.75650  0.50000  Biso   1.000  C
  C61      1.0000 0.18660  0.40140  0.17550  Biso   1.000  C
  C62      1.0000 0.25050  0.93880  0.50000  Biso   1.000  C
  C63      1.0000 0.12210  0.50000  0.11730  Biso   1.000  C
  C64      1.0000 0.71540  0.50000  0.25618  Biso   1.000  C
  C65      1.0000 0.20520  0.44137  0.19010  Biso   1.000  C
  C66      1.0000 0.78760  0.50000  0.96680  Biso   1.000  C
  C67      1.0000 0.74240  0.55860  0.76510  Biso   1.000  C
  C68      1.0000 0.71540  0.74382  0.50000  Biso   1.000  C
  C69      1.0000 0.78760  0.03320  0.50000  Biso   1.000  C
  C70      1.0000 0.82001  0.50000  0.16675  Biso   1.000  C
  C71      1.0000 0.71540  0.25618  0.50000  Biso   1.000  C
  C72      1.0000 0.28460  0.50000  0.25618  Biso   1.000  C
  C73      1.0000 0.20520  0.19010  0.55863  Biso   1.000  C
  C74      1.0000 0.85400  0.50000  0.94880  Biso   1.000  C
  C75      1.0000 0.17999  0.50000  0.83325  Biso   1.000  C
  C76      1.0000 0.20520  0.80990  0.55863  Biso   1.000  C
  C77      1.0000 0.82001  0.50000  0.83325  Biso   1.000  C
  C78      1.0000 0.96570  0.20630  0.50000  Biso   1.000  C
  C79      1.0000 0.14600  0.50000  0.94880  Biso   1.000  C
  C80      1.0000 0.79480  0.19010  0.55863  Biso   1.000  C
  C81      1.0000 0.85400  0.94880  0.50000  Biso   1.000  C
  C82      1.0000 0.79480  0.44137  0.19010  Biso   1.000  C
  C83      1.0000 0.78760  0.50000  0.03320  Biso   1.000  C
  C84      1.0000 0.21240  0.50000  0.03320  Biso   1.000  C
  C85      1.0000 0.96570  0.50000  0.79370  Biso   1.000  C
  C86      1.0000 0.79480  0.80990  0.55863  Biso   1.000  C
  C87      1.0000 0.25760  0.76510  0.44140  Biso   1.000  C
  C88      1.0000 0.66150  0.50000  0.69780  Biso   1.000  C
  C89      1.0000 0.21240  0.03320  0.50000  Biso   1.000  C
  C90      1.0000 0.25760  0.23490  0.44140  Biso   1.000  C
  C91      1.0000 0.28460  0.74382  0.50000  Biso   1.000  C
  C92      1.0000 0.33850  0.69780  0.50000  Biso   1.000  C
  C93      1.0000 0.20520  0.55863  0.19010  Biso   1.000  C
  C94      1.0000 0.94530  0.50000  0.85740  Biso   1.000  C
  C95      1.0000 0.21240  0.50000  0.96680  Biso   1.000  C
  C96      1.0000 0.85400  0.05120  0.50000  Biso   1.000  C
  C97      1.0000 0.94530  0.85740  0.50000  Biso   1.000  C
  C98      1.0000 0.14600  0.94880  0.50000  Biso   1.000  C
  C99      1.0000 0.74240  0.44140  0.76510  Biso   1.000  C
  C100     1.0000 0.74240  0.55860  0.23490  Biso   1.000  C
  C101     1.0000 0.87790  0.50000  0.88270  Biso   1.000  C
  C102     1.0000 0.96570  0.50000  0.20630  Biso   1.000  C
  C103     1.0000 0.33850  0.50000  0.69780  Biso   1.000  C
  C104     1.0000 0.14600  0.05120  0.50000  Biso   1.000  C
  C105     1.0000 0.74240  0.76510  0.55860  Biso   1.000  C
  C106     1.0000 0.66150  0.69780  0.50000  Biso   1.000  C
  C107     1.0000 0.79480  0.55863  0.19010  Biso   1.000  C
  C108     1.0000 0.33850  0.50000  0.30220  Biso   1.000  C
  C109     1.0000 0.21240  0.96680  0.50000  Biso   1.000  C
  C110     1.0000 0.05470  0.14260  0.50000  Biso   1.000  C
  C111     1.0000 0.20520  0.80990  0.44137  Biso   1.000  C
  C112     1.0000 0.28460  0.50000  0.74382  Biso   1.000  C
  C113     1.0000 0.05470  0.50000  0.14260  Biso   1.000  C
  C114     1.0000 0.20520  0.19010  0.44137  Biso   1.000  C
  C115     1.0000 0.66150  0.30220  0.50000  Biso   1.000  C
  C116     1.0000 0.03430  0.50000  0.20630  Biso   1.000  C
  C117     1.0000 0.05470  0.50000  0.85740  Biso   1.000  C
  C118     1.0000 0.12210  0.50000  0.88270  Biso   1.000  C
  C119     1.0000 0.66150  0.50000  0.30220  Biso   1.000  C
  C120     1.0000 0.12210  0.88270  0.50000  Biso   1.000  C
  C121     1.0000 0.82001  0.16675  0.50000  Biso   1.000  C
  C122     1.0000 0.20520  0.44137  0.80990  Biso   1.000  C
  C123     1.0000 0.25760  0.44140  0.23490  Biso   1.000  C
  C124     1.0000 0.82001  0.83325  0.50000  Biso   1.000  C
  C125     1.0000 0.74240  0.23490  0.44140  Biso   1.000  C
  C126     1.0000 0.33850  0.30220  0.50000  Biso   1.000  C
  C127     1.0000 0.87790  0.88270  0.50000  Biso   1.000  C
  C128     1.0000 0.74240  0.23490  0.55860  Biso   1.000  C
  C129     1.0000 0.03430  0.20630  0.50000  Biso   1.000  C
  C130     1.0000 0.96570  0.79370  0.50000  Biso   1.000  C
  C131     1.0000 0.87790  0.50000  0.11730  Biso   1.000  C
  C132     1.0000 0.94530  0.14260  0.50000  Biso   1.000  C
  C133     1.0000 0.87790  0.11730  0.50000  Biso   1.000  C
  C134     1.0000 0.25760  0.55860  0.76510  Biso   1.000  C
  C135     1.0000 0.94530  0.50000  0.14260  Biso   1.000  C
  C136     1.0000 0.25760  0.44140  0.76510  Biso   1.000  C
  C137     1.0000 0.17999  0.50000  0.16675  Biso   1.000  C
  C138     1.0000 0.71540  0.50000  0.74382  Biso   1.000  C
  C139     1.0000 0.03430  0.79370  0.50000  Biso   1.000  C
  C140     1.0000 0.79480  0.80990  0.44137  Biso   1.000  C
  C141     1.0000 0.79480  0.44137  0.80990  Biso   1.000  C
  C142     1.0000 0.74240  0.76510  0.44140  Biso   1.000  C
  C143     1.0000 0.25760  0.55860  0.23490  Biso   1.000  C
  C144     1.0000 0.79480  0.19010  0.44137  Biso   1.000  C
  C145     1.0000 0.17999  0.83325  0.50000  Biso   1.000  C
  C146     1.0000 0.78760  0.96680  0.50000  Biso   1.000  C
  C147     1.0000 0.20520  0.55863  0.80990  Biso   1.000  C
  C148     1.0000 0.74240  0.44140  0.23490  Biso   1.000  C
  C149     1.0000 0.85400  0.50000  0.05120  Biso   1.000  C
  C150     1.0000 0.28460  0.25618  0.50000  Biso   1.000  C
  C151     1.0000 0.05470  0.85740  0.50000  Biso   1.000  C
  C152     1.0000 0.79480  0.55863  0.80990  Biso   1.000  C
  C153     1.0000 0.17999  0.16675  0.50000  Biso   1.000  C
  C154     1.0000 0.12210  0.11730  0.50000  Biso   1.000  C
  C155     1.0000 0.25760  0.23490  0.55860  Biso   1.000  C
  C156     1.0000 0.14600  0.50000  0.05120  Biso   1.000  C
  C157     1.0000 0.25760  0.76510  0.55860  Biso   1.000  C
  C158     1.0000 0.03430  0.50000  0.79370  Biso   1.000  C
  C159     1.0000 0.42304  0.46732  0.64193  Biso   1.000  C
  C160     1.0000 0.37158  0.32229  0.55430  Biso   1.000  C
  C161     1.0000 0.57696  0.64193  0.46732  Biso   1.000  C
  C162     1.0000 0.37158  0.44570  0.32229  Biso   1.000  C
  C163     1.0000 0.57696  0.35807  0.46732  Biso   1.000  C
  C164     1.0000 0.37158  0.67771  0.55430  Biso   1.000  C
  C165     1.0000 0.42304  0.35807  0.53268  Biso   1.000  C
  C166     1.0000 0.62842  0.32229  0.44570  Biso   1.000  C
  C167     1.0000 0.37158  0.67771  0.44570  Biso   1.000  C
  C168     1.0000 0.62842  0.44570  0.67771  Biso   1.000  C
  C169     1.0000 0.62842  0.44570  0.32229  Biso   1.000  C
  C170     1.0000 0.37158  0.32229  0.44570  Biso   1.000  C
  C171     1.0000 0.00000  0.50000  0.90020  Biso   1.000  C
  C172     1.0000 0.42304  0.64193  0.46732  Biso   1.000  C
  C173     1.0000 0.89740  0.00000  0.50000  Biso   1.000  C
  C174     1.0000 0.00000  0.50000  0.09980  Biso   1.000  C
  C175     1.0000 0.42304  0.53268  0.35807  Biso   1.000  C
  C176     1.0000 0.37158  0.55430  0.67771  Biso   1.000  C
  C177     1.0000 0.62842  0.32229  0.55430  Biso   1.000  C
  C178     1.0000 0.62842  0.55430  0.67771  Biso   1.000  C
  C179     1.0000 0.42304  0.35807  0.46732  Biso   1.000  C
  C180     1.0000 0.62842  0.67771  0.44570  Biso   1.000  C
  C181     1.0000 0.57696  0.53268  0.64193  Biso   1.000  C
  C182     1.0000 0.42304  0.46732  0.35807  Biso   1.000  C
  C183     1.0000 0.10260  0.00000  0.50000  Biso   1.000  C
  C184     1.0000 0.62842  0.55430  0.32229  Biso   1.000  C
  C185     1.0000 0.62842  0.67771  0.55430  Biso   1.000  C
  C186     1.0000 0.57696  0.53268  0.35807  Biso   1.000  C
  C187     1.0000 0.57696  0.64193  0.53268  Biso   1.000  C
  C188     1.0000 0.37158  0.55430  0.32229  Biso   1.000  C
  C189     1.0000 0.57696  0.46732  0.35807  Biso   1.000  C
  C190     1.0000 0.37158  0.44570  0.67771  Biso   1.000  C
  C191     1.0000 0.00000  0.09980  0.50000  Biso   1.000  C
  C192     1.0000 0.42304  0.53268  0.64193  Biso   1.000  C
  C193     1.0000 0.57696  0.46732  0.64193  Biso   1.000  C
  C194     1.0000 0.42304  0.64193  0.53268  Biso   1.000  C
  C195     1.0000 0.89740  0.50000  0.00000  Biso   1.000  C
  C196     1.0000 0.00000  0.90020  0.50000  Biso   1.000  C
  C197     1.0000 0.57696  0.35807  0.53268  Biso   1.000  C
  C198     1.0000 0.10260  0.50000  0.00000  Biso   1.000  C
  O1       1.0000 0.50239  0.92457  0.48662  Biso   1.000  O
  O2       1.0000 0.50239  0.06951  0.48662  Biso   1.000  O
  O3       1.0000 0.50239  0.49864  0.06068  Biso   1.000  O
  O4       1.0000 0.50239  0.49864  0.91574  Biso   1.000  O
  O5       1.0000 0.90972  0.49864  0.48662  Biso   1.000  O
  O6       1.0000 0.05936  0.49864  0.48662  Biso   1.000  O
  O7       1.0000 0.71410  0.73509  0.25016  Biso   1.000  O
  O8       1.0000 0.81416  0.83201  0.15325  Biso   1.000  O
  O9       1.0000 0.25498  0.25900  0.25016  Biso   1.000  O
  O10      1.0000 0.15492  0.16208  0.15325  Biso   1.000  O
  O11      1.0000 0.25498  0.73509  0.72626  Biso   1.000  O
  O12      1.0000 0.15492  0.83201  0.82318  Biso   1.000  O
  O13      1.0000 0.71410  0.25900  0.72626  Biso   1.000  O
  O14      1.0000 0.81416  0.16208  0.82318  Biso   1.000  O
  O15      1.0000 0.71410  0.73509  0.72626  Biso   1.000  O
  O16      1.0000 0.81416  0.83201  0.82318  Biso   1.000  O
  O17      1.0000 0.25498  0.25900  0.72626  Biso   1.000  O
  O18      1.0000 0.15492  0.16208  0.82318  Biso   1.000  O
  O19      1.0000 0.71410  0.25900  0.25016  Biso   1.000  O
  O20      1.0000 0.81416  0.16208  0.15325  Biso   1.000  O
  O21      1.0000 0.25498  0.73509  0.25016  Biso   1.000  O
  O22      1.0000 0.15492  0.83201  0.15325  Biso   1.000  O
  O23      1.0000 0.62008  0.89893  0.34123  Biso   1.000  O
  O24      1.0000 0.34900  0.09516  0.34123  Biso   1.000  O
  O25      1.0000 0.34900  0.89893  0.63519  Biso   1.000  O
  O26      1.0000 0.62008  0.09516  0.63519  Biso   1.000  O
  O27      1.0000 0.62008  0.64402  0.08632  Biso   1.000  O
  O28      1.0000 0.62008  0.35007  0.89010  Biso   1.000  O
  O29      1.0000 0.34900  0.35007  0.08632  Biso   1.000  O
  O30      1.0000 0.34900  0.64402  0.89010  Biso   1.000  O
  O31      1.0000 0.88325  0.64402  0.34123  Biso   1.000  O
  O32      1.0000 0.08583  0.64402  0.63519  Biso   1.000  O
  O33      1.0000 0.88325  0.35007  0.63519  Biso   1.000  O
  O34      1.0000 0.08583  0.35007  0.34123  Biso   1.000  O
  O35      1.0000 0.88325  0.64402  0.63519  Biso   1.000  O
  O36      1.0000 0.08583  0.35007  0.63519  Biso   1.000  O
  O37      1.0000 0.88325  0.35007  0.34123  Biso   1.000  O
  O38      1.0000 0.08583  0.64402  0.34123  Biso   1.000  O
  O39      1.0000 0.62008  0.64402  0.89010  Biso   1.000  O
  O40      1.0000 0.34900  0.64402  0.08632  Biso   1.000  O
  O41      1.0000 0.34900  0.35007  0.89010  Biso   1.000  O
  O42      1.0000 0.62008  0.35007  0.08632  Biso   1.000  O
  O43      1.0000 0.62008  0.89893  0.63519  Biso   1.000  O
  O44      1.0000 0.62008  0.09516  0.34123  Biso   1.000  O
  O45      1.0000 0.34900  0.89893  0.34123  Biso   1.000  O
  O46      1.0000 0.34900  0.09516  0.63519  Biso   1.000  O
  O47      1.0000 0.74198  0.99704  0.22316  Biso   1.000  O
  O48      1.0000 0.22710  0.99704  0.22316  Biso   1.000  O
  O49      1.0000 0.22710  0.99704  0.75327  Biso   1.000  O
  O50      1.0000 0.74198  0.99704  0.75327  Biso   1.000  O
  O51      1.0000 0.74198  0.76210  0.98821  Biso   1.000  O
  O52      1.0000 0.74198  0.23199  0.98821  Biso   1.000  O
  O53      1.0000 0.22710  0.23199  0.98821  Biso   1.000  O
  O54      1.0000 0.22710  0.76210  0.98821  Biso   1.000  O
  O55      1.0000 0.98454  0.76210  0.22316  Biso   1.000  O
  O56      1.0000 0.98454  0.76210  0.75327  Biso   1.000  O
  O57      1.0000 0.98454  0.23199  0.75327  Biso   1.000  O
  O58      1.0000 0.98454  0.23199  0.22316  Biso   1.000  O
  O59      1.0000 0.63634  0.93836  0.32548  Biso   1.000  O
  O60      1.0000 0.68450  0.93956  0.27884  Biso   1.000  O
  O61      1.0000 0.71464  0.87676  0.24964  Biso   1.000  O
  O62      1.0000 0.33274  0.05573  0.32548  Biso   1.000  O
  O63      1.0000 0.28458  0.05453  0.27884  Biso   1.000  O
  O64      1.0000 0.25444  0.11733  0.24964  Biso   1.000  O
  O65      1.0000 0.33274  0.93836  0.65094  Biso   1.000  O
  O66      1.0000 0.28458  0.93956  0.69759  Biso   1.000  O
  O67      1.0000 0.25444  0.87676  0.72678  Biso   1.000  O
  O68      1.0000 0.63634  0.05573  0.65094  Biso   1.000  O
  O69      1.0000 0.68450  0.05453  0.69759  Biso   1.000  O
  O70      1.0000 0.71464  0.11733  0.72678  Biso   1.000  O
  O71      1.0000 0.63634  0.65977  0.04690  Biso   1.000  O
  O72      1.0000 0.68450  0.70642  0.04569  Biso   1.000  O
  O73      1.0000 0.71464  0.73561  0.10849  Biso   1.000  O
  O74      1.0000 0.63634  0.33432  0.92953  Biso   1.000  O
  O75      1.0000 0.68450  0.28767  0.93073  Biso   1.000  O
  O76      1.0000 0.71464  0.25848  0.86793  Biso   1.000  O
  O77      1.0000 0.33274  0.33432  0.04690  Biso   1.000  O
  O78      1.0000 0.28458  0.28767  0.04569  Biso   1.000  O
  O79      1.0000 0.25444  0.25848  0.10849  Biso   1.000  O
  O80      1.0000 0.33274  0.65977  0.92953  Biso   1.000  O
  O81      1.0000 0.28458  0.70642  0.93073  Biso   1.000  O
  O82      1.0000 0.25444  0.73561  0.86793  Biso   1.000  O
  O83      1.0000 0.92395  0.65977  0.32548  Biso   1.000  O
  O84      1.0000 0.92519  0.70642  0.27884  Biso   1.000  O
  O85      1.0000 0.86036  0.73561  0.24964  Biso   1.000  O
  O86      1.0000 0.04513  0.65977  0.65094  Biso   1.000  O
  O87      1.0000 0.04388  0.70642  0.69759  Biso   1.000  O
  O88      1.0000 0.10872  0.73561  0.72678  Biso   1.000  O
  O89      1.0000 0.92395  0.33432  0.65094  Biso   1.000  O
  O90      1.0000 0.92519  0.28767  0.69759  Biso   1.000  O
  O91      1.0000 0.86036  0.25848  0.72678  Biso   1.000  O
  O92      1.0000 0.04513  0.33432  0.32548  Biso   1.000  O
  O93      1.0000 0.04388  0.28767  0.27884  Biso   1.000  O
  O94      1.0000 0.10872  0.25848  0.24964  Biso   1.000  O
  O95      1.0000 0.92395  0.65977  0.65094  Biso   1.000  O
  O96      1.0000 0.92519  0.70642  0.69759  Biso   1.000  O
  O97      1.0000 0.86036  0.73561  0.72678  Biso   1.000  O
  O98      1.0000 0.04513  0.33432  0.65094  Biso   1.000  O
  O99      1.0000 0.04388  0.28767  0.69759  Biso   1.000  O
  O100     1.0000 0.10872  0.25848  0.72678  Biso   1.000  O
  O101     1.0000 0.92395  0.33432  0.32548  Biso   1.000  O
  O102     1.0000 0.92519  0.28767  0.27884  Biso   1.000  O
  O103     1.0000 0.86036  0.25848  0.24964  Biso   1.000  O
  O104     1.0000 0.04513  0.65977  0.32548  Biso   1.000  O
  O105     1.0000 0.04388  0.70642  0.27884  Biso   1.000  O
  O106     1.0000 0.10872  0.73561  0.24964  Biso   1.000  O
  O107     1.0000 0.63634  0.65977  0.92953  Biso   1.000  O
  O108     1.0000 0.68450  0.70642  0.93073  Biso   1.000  O
  O109     1.0000 0.71464  0.73561  0.86793  Biso   1.000  O
  O110     1.0000 0.33274  0.65977  0.04690  Biso   1.000  O
  O111     1.0000 0.28458  0.70642  0.04569  Biso   1.000  O
  O112     1.0000 0.25444  0.73561  0.10849  Biso   1.000  O
  O113     1.0000 0.33274  0.33432  0.92953  Biso   1.000  O
  O114     1.0000 0.28458  0.28767  0.93073  Biso   1.000  O
  O115     1.0000 0.25444  0.25848  0.86793  Biso   1.000  O
  O116     1.0000 0.63634  0.33432  0.04690  Biso   1.000  O
  O117     1.0000 0.68450  0.28767  0.04569  Biso   1.000  O
  O118     1.0000 0.71464  0.25848  0.10849  Biso   1.000  O
  O119     1.0000 0.63634  0.93836  0.65094  Biso   1.000  O
  O120     1.0000 0.68450  0.93956  0.69759  Biso   1.000  O
  O121     1.0000 0.71464  0.87676  0.72678  Biso   1.000  O
  O122     1.0000 0.63634  0.05573  0.32548  Biso   1.000  O
  O123     1.0000 0.68450  0.05453  0.27884  Biso   1.000  O
  O124     1.0000 0.71464  0.11733  0.24964  Biso   1.000  O
  O125     1.0000 0.33274  0.93836  0.32548  Biso   1.000  O
  O126     1.0000 0.28458  0.93956  0.27884  Biso   1.000  O
  O127     1.0000 0.25444  0.87676  0.24964  Biso   1.000  O
  O128     1.0000 0.33274  0.05573  0.65094  Biso   1.000  O
  O129     1.0000 0.28458  0.05453  0.69759  Biso   1.000  O
  O130     1.0000 0.25444  0.11733  0.72678  Biso   1.000  O
  O131     1.0000 0.55928  0.99704  0.40012  Biso   1.000  O
  O132     1.0000 0.61169  0.99704  0.34936  Biso   1.000  O
  O133     1.0000 0.70894  0.99704  0.25516  Biso   1.000  O
  O134     1.0000 0.40980  0.99704  0.40012  Biso   1.000  O
  O135     1.0000 0.35739  0.99704  0.34936  Biso   1.000  O
  O136     1.0000 0.26014  0.99704  0.25516  Biso   1.000  O
  O137     1.0000 0.40980  0.99704  0.57630  Biso   1.000  O
  O138     1.0000 0.35739  0.99704  0.62706  Biso   1.000  O
  O139     1.0000 0.26014  0.99704  0.72126  Biso   1.000  O
  O140     1.0000 0.55928  0.99704  0.57630  Biso   1.000  O
  O141     1.0000 0.61169  0.99704  0.62706  Biso   1.000  O
  O142     1.0000 0.70894  0.99704  0.72126  Biso   1.000  O
  O143     1.0000 0.55928  0.58514  0.98821  Biso   1.000  O
  O144     1.0000 0.61169  0.63590  0.98821  Biso   1.000  O
  O145     1.0000 0.70894  0.73010  0.98821  Biso   1.000  O
  O146     1.0000 0.55928  0.40895  0.98821  Biso   1.000  O
  O147     1.0000 0.61169  0.35819  0.98821  Biso   1.000  O
  O148     1.0000 0.70894  0.26399  0.98821  Biso   1.000  O
  O149     1.0000 0.40980  0.40895  0.98821  Biso   1.000  O
  O150     1.0000 0.35739  0.35819  0.98821  Biso   1.000  O
  O151     1.0000 0.26014  0.26399  0.98821  Biso   1.000  O
  O152     1.0000 0.40980  0.58514  0.98821  Biso   1.000  O
  O153     1.0000 0.35739  0.63590  0.98821  Biso   1.000  O
  O154     1.0000 0.26014  0.73010  0.98821  Biso   1.000  O
  O155     1.0000 0.98454  0.58514  0.40012  Biso   1.000  O
  O156     1.0000 0.98454  0.63590  0.34936  Biso   1.000  O
  O157     1.0000 0.98454  0.73010  0.25516  Biso   1.000  O
  O158     1.0000 0.98454  0.58514  0.57630  Biso   1.000  O
  O159     1.0000 0.98454  0.63590  0.62706  Biso   1.000  O
  O160     1.0000 0.98454  0.73010  0.72126  Biso   1.000  O
  O161     1.0000 0.98454  0.40895  0.57630  Biso   1.000  O
  O162     1.0000 0.98454  0.35819  0.62706  Biso   1.000  O
  O163     1.0000 0.98454  0.26399  0.72126  Biso   1.000  O
  O164     1.0000 0.98454  0.40895  0.40012  Biso   1.000  O
  O165     1.0000 0.98454  0.35819  0.34936  Biso   1.000  O
  O166     1.0000 0.98454  0.26399  0.25516  Biso   1.000  O
  O167     1.0000 0.53805  0.94267  0.42069  Biso   1.000  O
  O168     1.0000 0.69009  0.82440  0.27342  Biso   1.000  O
  O169     1.0000 0.76000  0.88348  0.20570  Biso   1.000  O
  O170     1.0000 0.43103  0.05142  0.42069  Biso   1.000  O
  O171     1.0000 0.27899  0.16969  0.27342  Biso   1.000  O
  O172     1.0000 0.20908  0.11061  0.20570  Biso   1.000  O
  O173     1.0000 0.43103  0.94267  0.55574  Biso   1.000  O
  O174     1.0000 0.27899  0.82440  0.70301  Biso   1.000  O
  O175     1.0000 0.20908  0.88348  0.77072  Biso   1.000  O
  O176     1.0000 0.53805  0.05142  0.55574  Biso   1.000  O
  O177     1.0000 0.69009  0.16969  0.70301  Biso   1.000  O
  O178     1.0000 0.76000  0.11061  0.77072  Biso   1.000  O
  O179     1.0000 0.53805  0.56457  0.04258  Biso   1.000  O
  O180     1.0000 0.69009  0.71184  0.16086  Biso   1.000  O
  O181     1.0000 0.76000  0.77955  0.10177  Biso   1.000  O
  O182     1.0000 0.53805  0.42952  0.93384  Biso   1.000  O
  O183     1.0000 0.69009  0.28225  0.81556  Biso   1.000  O
  O184     1.0000 0.76000  0.21454  0.87465  Biso   1.000  O
  O185     1.0000 0.43103  0.42952  0.04258  Biso   1.000  O
  O186     1.0000 0.27899  0.28225  0.16086  Biso   1.000  O
  O187     1.0000 0.20908  0.21454  0.10177  Biso   1.000  O
  O188     1.0000 0.43103  0.56457  0.93384  Biso   1.000  O
  O189     1.0000 0.27899  0.71184  0.81556  Biso   1.000  O
  O190     1.0000 0.20908  0.77955  0.87465  Biso   1.000  O
  O191     1.0000 0.92840  0.56457  0.42069  Biso   1.000  O
  O192     1.0000 0.80630  0.71184  0.27342  Biso   1.000  O
  O193     1.0000 0.86730  0.77955  0.20570  Biso   1.000  O
  O194     1.0000 0.04067  0.56457  0.55574  Biso   1.000  O
  O195     1.0000 0.16278  0.71184  0.70301  Biso   1.000  O
  O196     1.0000 0.10178  0.77955  0.77072  Biso   1.000  O
  O197     1.0000 0.92840  0.42952  0.55574  Biso   1.000  O
  O198     1.0000 0.80630  0.28225  0.70301  Biso   1.000  O
  O199     1.0000 0.86730  0.21454  0.77072  Biso   1.000  O
  O200     1.0000 0.04067  0.42952  0.42069  Biso   1.000  O
  O201     1.0000 0.16278  0.28225  0.27342  Biso   1.000  O
  O202     1.0000 0.10178  0.21454  0.20570  Biso   1.000  O
  O203     1.0000 0.92840  0.56457  0.55574  Biso   1.000  O
  O204     1.0000 0.80630  0.71184  0.70301  Biso   1.000  O
  O205     1.0000 0.86730  0.77955  0.77072  Biso   1.000  O
  O206     1.0000 0.04067  0.42952  0.55574  Biso   1.000  O
  O207     1.0000 0.16278  0.28225  0.70301  Biso   1.000  O
  O208     1.0000 0.10178  0.21454  0.77072  Biso   1.000  O
  O209     1.0000 0.92840  0.42952  0.42069  Biso   1.000  O
  O210     1.0000 0.80630  0.28225  0.27342  Biso   1.000  O
  O211     1.0000 0.86730  0.21454  0.20570  Biso   1.000  O
  O212     1.0000 0.04067  0.56457  0.42069  Biso   1.000  O
  O213     1.0000 0.16278  0.71184  0.27342  Biso   1.000  O
  O214     1.0000 0.10178  0.77955  0.20570  Biso   1.000  O
  O215     1.0000 0.53805  0.56457  0.93384  Biso   1.000  O
  O216     1.0000 0.69009  0.71184  0.81556  Biso   1.000  O
  O217     1.0000 0.76000  0.77955  0.87465  Biso   1.000  O
  O218     1.0000 0.43103  0.56457  0.04258  Biso   1.000  O
  O219     1.0000 0.27899  0.71184  0.16086  Biso   1.000  O
  O220     1.0000 0.20908  0.77955  0.10177  Biso   1.000  O
  O221     1.0000 0.43103  0.42952  0.93384  Biso   1.000  O
  O222     1.0000 0.27899  0.28225  0.81556  Biso   1.000  O
  O223     1.0000 0.20908  0.21454  0.87465  Biso   1.000  O
  O224     1.0000 0.53805  0.42952  0.04258  Biso   1.000  O
  O225     1.0000 0.69009  0.28225  0.16086  Biso   1.000  O
  O226     1.0000 0.76000  0.21454  0.10177  Biso   1.000  O
  O227     1.0000 0.53805  0.94267  0.55574  Biso   1.000  O
  O228     1.0000 0.69009  0.82440  0.70301  Biso   1.000  O
  O229     1.0000 0.76000  0.88348  0.77072  Biso   1.000  O
  O230     1.0000 0.53805  0.05142  0.42069  Biso   1.000  O
  O231     1.0000 0.69009  0.16969  0.27342  Biso   1.000  O
  O232     1.0000 0.76000  0.11061  0.20570  Biso   1.000  O
  O233     1.0000 0.43103  0.94267  0.42069  Biso   1.000  O
  O234     1.0000 0.27899  0.82440  0.27342  Biso   1.000  O
  O235     1.0000 0.20908  0.88348  0.20570  Biso   1.000  O
  O236     1.0000 0.43103  0.05142  0.55574  Biso   1.000  O
  O237     1.0000 0.27899  0.16969  0.70301  Biso   1.000  O
