data_image0
_cell_length_a       18.266
_cell_length_b       18.266
_cell_length_c       18.266
_cell_angle_alpha    60
_cell_angle_beta     60
_cell_angle_gamma    60

_symmetry_space_group_name_H-M    "P 1"
_symmetry_int_tables_number       1

loop_
  _symmetry_equiv_pos_as_xyz
  'x, y, z'

loop_
  _atom_site_label
  _atom_site_occupancy
  _atom_site_fract_x
  _atom_site_fract_y
  _atom_site_fract_z
  _atom_site_thermal_displace_type
  _atom_site_B_iso_or_equiv
  _atom_site_type_symbol
  C1       1.0000 0.29338  0.29338  0.29338  Biso   1.000  C
  C2       1.0000 0.29338  0.29338  0.11986  Biso   1.000  C
  C3       1.0000 0.29338  0.11986  0.29338  Biso   1.000  C
  C4       1.0000 0.11986  0.29338  0.29338  Biso   1.000  C
  C5       1.0000 0.70662  0.70662  0.70662  Biso   1.000  C
  C6       1.0000 0.70662  0.70662  0.88014  Biso   1.000  C
  C7       1.0000 0.88014  0.70662  0.70662  Biso   1.000  C
  C8       1.0000 0.70662  0.88014  0.70662  Biso   1.000  C
  C9       1.0000 0.15460  0.45520  0.45520  Biso   1.000  C
  C10      1.0000 0.45520  0.15460  0.93500  Biso   1.000  C
  C11      1.0000 0.45520  0.93500  0.15460  Biso   1.000  C
  C12      1.0000 0.93500  0.45520  0.45520  Biso   1.000  C
  C13      1.0000 0.15460  0.45520  0.93500  Biso   1.000  C
  C14      1.0000 0.45520  0.93500  0.45520  Biso   1.000  C
  C15      1.0000 0.45520  0.15460  0.45520  Biso   1.000  C
  C16      1.0000 0.93500  0.45520  0.15460  Biso   1.000  C
  C17      1.0000 0.15460  0.93500  0.45520  Biso   1.000  C
  C18      1.0000 0.45520  0.45520  0.15460  Biso   1.000  C
  C19      1.0000 0.45520  0.45520  0.93500  Biso   1.000  C
  C20      1.0000 0.93500  0.15460  0.45520  Biso   1.000  C
  C21      1.0000 0.54480  0.84540  0.54480  Biso   1.000  C
  C22      1.0000 0.84540  0.54480  0.06500  Biso   1.000  C
  C23      1.0000 0.06500  0.54480  0.84540  Biso   1.000  C
  C24      1.0000 0.54480  0.06500  0.54480  Biso   1.000  C
  C25      1.0000 0.54480  0.84540  0.06500  Biso   1.000  C
  C26      1.0000 0.06500  0.54480  0.54480  Biso   1.000  C
  C27      1.0000 0.84540  0.54480  0.54480  Biso   1.000  C
  C28      1.0000 0.54480  0.06500  0.84540  Biso   1.000  C
  C29      1.0000 0.06500  0.84540  0.54480  Biso   1.000  C
  C30      1.0000 0.54480  0.54480  0.84540  Biso   1.000  C
  C31      1.0000 0.54480  0.54480  0.06500  Biso   1.000  C
  C32      1.0000 0.84540  0.06500  0.54480  Biso   1.000  C
  C33      1.0000 0.09270  0.47310  0.47310  Biso   1.000  C
  C34      1.0000 0.47310  0.09270  0.96110  Biso   1.000  C
  C35      1.0000 0.47310  0.96110  0.09270  Biso   1.000  C
  C36      1.0000 0.96110  0.47310  0.47310  Biso   1.000  C
  C37      1.0000 0.09270  0.47310  0.96110  Biso   1.000  C
  C38      1.0000 0.47310  0.96110  0.47310  Biso   1.000  C
  C39      1.0000 0.47310  0.09270  0.47310  Biso   1.000  C
  C40      1.0000 0.96110  0.47310  0.09270  Biso   1.000  C
  C41      1.0000 0.09270  0.96110  0.47310  Biso   1.000  C
  C42      1.0000 0.47310  0.47310  0.09270  Biso   1.000  C
  C43      1.0000 0.47310  0.47310  0.96110  Biso   1.000  C
  C44      1.0000 0.96110  0.09270  0.47310  Biso   1.000  C
  C45      1.0000 0.52690  0.90730  0.52690  Biso   1.000  C
  C46      1.0000 0.90730  0.52690  0.03890  Biso   1.000  C
  C47      1.0000 0.03890  0.52690  0.90730  Biso   1.000  C
  C48      1.0000 0.52690  0.03890  0.52690  Biso   1.000  C
  C49      1.0000 0.52690  0.90730  0.03890  Biso   1.000  C
  C50      1.0000 0.03890  0.52690  0.52690  Biso   1.000  C
  C51      1.0000 0.90730  0.52690  0.52690  Biso   1.000  C
  C52      1.0000 0.52690  0.03890  0.90730  Biso   1.000  C
  C53      1.0000 0.03890  0.90730  0.52690  Biso   1.000  C
  C54      1.0000 0.52690  0.52690  0.90730  Biso   1.000  C
  C55      1.0000 0.52690  0.52690  0.03890  Biso   1.000  C
  C56      1.0000 0.90730  0.03890  0.52690  Biso   1.000  C
  C57      1.0000 0.11130  0.38870  0.38870  Biso   1.000  C
  C58      1.0000 0.05380  0.44620  0.44620  Biso   1.000  C
  C59      1.0000 0.38870  0.11130  0.11130  Biso   1.000  C
  C60      1.0000 0.44620  0.05380  0.05380  Biso   1.000  C
  C61      1.0000 0.11130  0.38870  0.11130  Biso   1.000  C
  C62      1.0000 0.05380  0.44620  0.05380  Biso   1.000  C
  C63      1.0000 0.38870  0.11130  0.38870  Biso   1.000  C
  C64      1.0000 0.44620  0.05380  0.44620  Biso   1.000  C
  C65      1.0000 0.11130  0.11130  0.38870  Biso   1.000  C
  C66      1.0000 0.05380  0.05380  0.44620  Biso   1.000  C
  C67      1.0000 0.38870  0.38870  0.11130  Biso   1.000  C
  C68      1.0000 0.44620  0.44620  0.05380  Biso   1.000  C
  C69      1.0000 0.61130  0.88870  0.61130  Biso   1.000  C
  C70      1.0000 0.55380  0.94620  0.55380  Biso   1.000  C
  C71      1.0000 0.88870  0.61130  0.88870  Biso   1.000  C
  C72      1.0000 0.94620  0.55380  0.94620  Biso   1.000  C
  C73      1.0000 0.61130  0.88870  0.88870  Biso   1.000  C
  C74      1.0000 0.55380  0.94620  0.94620  Biso   1.000  C
  C75      1.0000 0.88870  0.61130  0.61130  Biso   1.000  C
  C76      1.0000 0.94620  0.55380  0.55380  Biso   1.000  C
  C77      1.0000 0.88870  0.88870  0.61130  Biso   1.000  C
  C78      1.0000 0.94620  0.94620  0.55380  Biso   1.000  C
  C79      1.0000 0.61130  0.61130  0.88870  Biso   1.000  C
  C80      1.0000 0.55380  0.55380  0.94620  Biso   1.000  C
  C81      1.0000 0.25000  0.25000  0.25000  Biso   1.000  C
  C82      1.0000 0.75000  0.75000  0.75000  Biso   1.000  C
  C83      1.0000 0.19777  0.36600  0.36600  Biso   1.000  C
  C84      1.0000 0.36600  0.19777  0.07023  Biso   1.000  C
  C85      1.0000 0.36600  0.07023  0.19777  Biso   1.000  C
  C86      1.0000 0.07023  0.36600  0.36600  Biso   1.000  C
  C87      1.0000 0.19777  0.36600  0.07023  Biso   1.000  C
  C88      1.0000 0.36600  0.07023  0.36600  Biso   1.000  C
  C89      1.0000 0.36600  0.19777  0.36600  Biso   1.000  C
  C90      1.0000 0.07023  0.36600  0.19777  Biso   1.000  C
  C91      1.0000 0.19777  0.07023  0.36600  Biso   1.000  C
  C92      1.0000 0.36600  0.36600  0.19777  Biso   1.000  C
  C93      1.0000 0.36600  0.36600  0.07023  Biso   1.000  C
  C94      1.0000 0.07023  0.19777  0.36600  Biso   1.000  C
  C95      1.0000 0.63400  0.80223  0.63400  Biso   1.000  C
  C96      1.0000 0.80223  0.63400  0.92977  Biso   1.000  C
  C97      1.0000 0.92977  0.63400  0.80223  Biso   1.000  C
  C98      1.0000 0.63400  0.92977  0.63400  Biso   1.000  C
  C99      1.0000 0.63400  0.80223  0.92977  Biso   1.000  C
  C100     1.0000 0.92977  0.63400  0.63400  Biso   1.000  C
  C101     1.0000 0.80223  0.63400  0.63400  Biso   1.000  C
  C102     1.0000 0.63400  0.92977  0.80223  Biso   1.000  C
  C103     1.0000 0.92977  0.80223  0.63400  Biso   1.000  C
  C104     1.0000 0.63400  0.63400  0.80223  Biso   1.000  C
  C105     1.0000 0.63400  0.63400  0.92977  Biso   1.000  C
  C106     1.0000 0.80223  0.92977  0.63400  Biso   1.000  C
  O1       1.0000 0.50286  0.52041  0.33525  Biso   1.000  O
  O2       1.0000 0.50286  0.52041  0.50927  Biso   1.000  O
  O3       1.0000 0.32885  0.52041  0.50927  Biso   1.000  O
  O4       1.0000 0.50286  0.34639  0.50927  Biso   1.000  O
  O5       1.0000 0.91619  0.93376  0.09663  Biso   1.000  O
  O6       1.0000 0.91619  0.93376  0.92262  Biso   1.000  O
  O7       1.0000 0.91619  0.10777  0.92262  Biso   1.000  O
  O8       1.0000 0.09021  0.93376  0.92262  Biso   1.000  O
  O9       1.0000 0.66469  0.68225  0.15145  Biso   1.000  O
  O10      1.0000 0.66470  0.68225  0.37010  Biso   1.000  O
  O11      1.0000 0.14503  0.38124  0.67111  Biso   1.000  O
  O12      1.0000 0.36368  0.16259  0.67111  Biso   1.000  O
  O13      1.0000 0.66470  0.16259  0.37010  Biso   1.000  O
  O14      1.0000 0.66470  0.38124  0.15145  Biso   1.000  O
  O15      1.0000 0.14503  0.68225  0.67111  Biso   1.000  O
  O16      1.0000 0.36368  0.68225  0.67111  Biso   1.000  O
  O17      1.0000 0.66470  0.38124  0.67111  Biso   1.000  O
  O18      1.0000 0.66469  0.16259  0.67111  Biso   1.000  O
  O19      1.0000 0.14503  0.68225  0.37010  Biso   1.000  O
  O20      1.0000 0.36368  0.68225  0.15145  Biso   1.000  O
  O21      1.0000 0.75436  0.77192  0.28043  Biso   1.000  O
  O22      1.0000 0.75436  0.77192  0.06179  Biso   1.000  O
  O23      1.0000 0.05537  0.29158  0.76077  Biso   1.000  O
  O24      1.0000 0.27402  0.07293  0.76077  Biso   1.000  O
  O25      1.0000 0.27402  0.77192  0.06179  Biso   1.000  O
  O26      1.0000 0.05537  0.77192  0.28043  Biso   1.000  O
  O27      1.0000 0.75436  0.29158  0.76077  Biso   1.000  O
  O28      1.0000 0.75436  0.07293  0.76077  Biso   1.000  O
  O29      1.0000 0.05537  0.77192  0.76077  Biso   1.000  O
  O30      1.0000 0.27402  0.77192  0.76077  Biso   1.000  O
  O31      1.0000 0.75436  0.29158  0.06179  Biso   1.000  O
  O32      1.0000 0.75436  0.07293  0.28043  Biso   1.000  O
  O33      1.0000 0.68289  0.70044  0.17841  Biso   1.000  O
  O34      1.0000 0.68289  0.70044  0.30675  Biso   1.000  O
  O35      1.0000 0.17199  0.31789  0.68930  Biso   1.000  O
  O36      1.0000 0.30034  0.18955  0.68930  Biso   1.000  O
  O37      1.0000 0.68289  0.18955  0.30675  Biso   1.000  O
  O38      1.0000 0.68289  0.31789  0.17841  Biso   1.000  O
  O39      1.0000 0.17199  0.70044  0.68930  Biso   1.000  O
  O40      1.0000 0.30034  0.70044  0.68930  Biso   1.000  O
  O41      1.0000 0.68289  0.31789  0.68930  Biso   1.000  O
  O42      1.0000 0.68289  0.18955  0.68930  Biso   1.000  O
  O43      1.0000 0.17199  0.70044  0.30675  Biso   1.000  O
  O44      1.0000 0.30034  0.70044  0.17841  Biso   1.000  O
  O45      1.0000 0.73617  0.75372  0.25347  Biso   1.000  O
  O46      1.0000 0.73617  0.75372  0.12513  Biso   1.000  O
  O47      1.0000 0.11872  0.26462  0.74258  Biso   1.000  O
  O48      1.0000 0.24706  0.13627  0.74258  Biso   1.000  O
  O49      1.0000 0.24706  0.75372  0.12513  Biso   1.000  O
  O50      1.0000 0.11872  0.75372  0.25347  Biso   1.000  O
  O51      1.0000 0.73617  0.26462  0.74258  Biso   1.000  O
  O52      1.0000 0.73617  0.13627  0.74258  Biso   1.000  O
  O53      1.0000 0.11872  0.75372  0.74258  Biso   1.000  O
  O54      1.0000 0.24706  0.75372  0.74258  Biso   1.000  O
  O55      1.0000 0.73617  0.26462  0.12513  Biso   1.000  O
  O56      1.0000 0.73617  0.13627  0.25347  Biso   1.000  O
  O57      1.0000 0.59798  0.61553  0.32714  Biso   1.000  O
  O58      1.0000 0.65564  0.67320  0.26948  Biso   1.000  O
  O59      1.0000 0.32072  0.33828  0.60439  Biso   1.000  O
  O60      1.0000 0.26306  0.28062  0.66205  Biso   1.000  O
  O61      1.0000 0.59798  0.33828  0.32714  Biso   1.000  O
  O62      1.0000 0.65564  0.28062  0.26948  Biso   1.000  O
  O63      1.0000 0.32072  0.61553  0.60439  Biso   1.000  O
  O64      1.0000 0.26306  0.67320  0.66205  Biso   1.000  O
  O65      1.0000 0.59798  0.33828  0.60439  Biso   1.000  O
  O66      1.0000 0.65564  0.28062  0.66205  Biso   1.000  O
  O67      1.0000 0.32072  0.61553  0.32714  Biso   1.000  O
  O68      1.0000 0.26306  0.67320  0.26948  Biso   1.000  O
  O69      1.0000 0.82108  0.83863  0.10475  Biso   1.000  O
  O70      1.0000 0.76341  0.78097  0.16241  Biso   1.000  O
  O71      1.0000 0.09833  0.11589  0.82749  Biso   1.000  O
  O72      1.0000 0.15599  0.17355  0.76983  Biso   1.000  O
  O73      1.0000 0.09833  0.83863  0.10475  Biso   1.000  O
  O74      1.0000 0.15599  0.78097  0.16241  Biso   1.000  O
  O75      1.0000 0.82108  0.11589  0.82749  Biso   1.000  O
  O76      1.0000 0.76341  0.17355  0.76983  Biso   1.000  O
  O77      1.0000 0.09833  0.83863  0.82749  Biso   1.000  O
  O78      1.0000 0.15599  0.78097  0.76983  Biso   1.000  O
  O79      1.0000 0.82108  0.11589  0.10475  Biso   1.000  O
  O80      1.0000 0.76341  0.17355  0.16241  Biso   1.000  O
  O81      1.0000 0.45935  0.47691  0.46576  Biso   1.000  O
  O82      1.0000 0.95970  0.97726  0.96612  Biso   1.000  O
  O83      1.0000 0.57567  0.59323  0.28850  Biso   1.000  O
  O84      1.0000 0.57567  0.59323  0.41039  Biso   1.000  O
  O85      1.0000 0.28209  0.42153  0.58209  Biso   1.000  O
  O86      1.0000 0.40397  0.29964  0.58209  Biso   1.000  O
  O87      1.0000 0.57567  0.29964  0.41039  Biso   1.000  O
  O88      1.0000 0.57567  0.42153  0.28850  Biso   1.000  O
  O89      1.0000 0.28209  0.59323  0.58209  Biso   1.000  O
  O90      1.0000 0.40397  0.59323  0.58209  Biso   1.000  O
  O91      1.0000 0.57567  0.42153  0.58209  Biso   1.000  O
  O92      1.0000 0.57567  0.29964  0.58209  Biso   1.000  O
  O93      1.0000 0.28209  0.59323  0.41039  Biso   1.000  O
  O94      1.0000 0.40397  0.59323  0.28850  Biso   1.000  O
  O95      1.0000 0.84338  0.86094  0.14338  Biso   1.000  O
  O96      1.0000 0.84338  0.86094  0.02150  Biso   1.000  O
  O97      1.0000 0.01508  0.15453  0.84980  Biso   1.000  O
  O98      1.0000 0.13697  0.03264  0.84980  Biso   1.000  O
  O99      1.0000 0.13697  0.86094  0.02150  Biso   1.000  O
  O100     1.0000 0.01508  0.86094  0.14338  Biso   1.000  O
  O101     1.0000 0.84338  0.15453  0.84980  Biso   1.000  O
  O102     1.0000 0.84338  0.03264  0.84980  Biso   1.000  O
  O103     1.0000 0.01508  0.86094  0.84980  Biso   1.000  O
  O104     1.0000 0.13697  0.86094  0.84980  Biso   1.000  O
  O105     1.0000 0.84338  0.15452  0.02150  Biso   1.000  O
