data_image0
_cell_length_a       18.266
_cell_length_b       18.266
_cell_length_c       18.266
_cell_angle_alpha    60
_cell_angle_beta     60
_cell_angle_gamma    60

_symmetry_space_group_name_H-M    "P 1"
_symmetry_int_tables_number       1

loop_
  _symmetry_equiv_pos_as_xyz
  'x, y, z'

loop_
  _atom_site_label
  _atom_site_occupancy
  _atom_site_fract_x
  _atom_site_fract_y
  _atom_site_fract_z
  _atom_site_thermal_displace_type
  _atom_site_B_iso_or_equiv
  _atom_site_type_symbol
  C1       1.0000 0.29338  0.29338  0.29338  Biso   1.000  C
  C2       1.0000 0.29338  0.29338  0.11986  Biso   1.000  C
  C3       1.0000 0.29338  0.11986  0.29338  Biso   1.000  C
  C4       1.0000 0.11986  0.29338  0.29338  Biso   1.000  C
  C5       1.0000 0.70662  0.70662  0.70662  Biso   1.000  C
  C6       1.0000 0.70662  0.70662  0.88014  Biso   1.000  C
  C7       1.0000 0.88014  0.70662  0.70662  Biso   1.000  C
  C8       1.0000 0.70662  0.88014  0.70662  Biso   1.000  C
  C9       1.0000 0.15460  0.45520  0.45520  Biso   1.000  C
  C10      1.0000 0.45520  0.15460  0.93500  Biso   1.000  C
  C11      1.0000 0.45520  0.93500  0.15460  Biso   1.000  C
  C12      1.0000 0.93500  0.45520  0.45520  Biso   1.000  C
  C13      1.0000 0.15460  0.45520  0.93500  Biso   1.000  C
  C14      1.0000 0.45520  0.93500  0.45520  Biso   1.000  C
  C15      1.0000 0.45520  0.15460  0.45520  Biso   1.000  C
  C16      1.0000 0.93500  0.45520  0.15460  Biso   1.000  C
  C17      1.0000 0.15460  0.93500  0.45520  Biso   1.000  C
  C18      1.0000 0.45520  0.45520  0.15460  Biso   1.000  C
  C19      1.0000 0.45520  0.45520  0.93500  Biso   1.000  C
  C20      1.0000 0.93500  0.15460  0.45520  Biso   1.000  C
  C21      1.0000 0.54480  0.84540  0.54480  Biso   1.000  C
  C22      1.0000 0.84540  0.54480  0.06500  Biso   1.000  C
  C23      1.0000 0.06500  0.54480  0.84540  Biso   1.000  C
  C24      1.0000 0.54480  0.06500  0.54480  Biso   1.000  C
  C25      1.0000 0.54480  0.84540  0.06500  Biso   1.000  C
  C26      1.0000 0.06500  0.54480  0.54480  Biso   1.000  C
  C27      1.0000 0.84540  0.54480  0.54480  Biso   1.000  C
  C28      1.0000 0.54480  0.06500  0.84540  Biso   1.000  C
  C29      1.0000 0.06500  0.84540  0.54480  Biso   1.000  C
  C30      1.0000 0.54480  0.54480  0.84540  Biso   1.000  C
  C31      1.0000 0.54480  0.54480  0.06500  Biso   1.000  C
  C32      1.0000 0.84540  0.06500  0.54480  Biso   1.000  C
  C33      1.0000 0.09270  0.47310  0.47310  Biso   1.000  C
  C34      1.0000 0.47310  0.09270  0.96110  Biso   1.000  C
  C35      1.0000 0.47310  0.96110  0.09270  Biso   1.000  C
  C36      1.0000 0.96110  0.47310  0.47310  Biso   1.000  C
  C37      1.0000 0.09270  0.47310  0.96110  Biso   1.000  C
  C38      1.0000 0.47310  0.96110  0.47310  Biso   1.000  C
  C39      1.0000 0.47310  0.09270  0.47310  Biso   1.000  C
  C40      1.0000 0.96110  0.47310  0.09270  Biso   1.000  C
  C41      1.0000 0.09270  0.96110  0.47310  Biso   1.000  C
  C42      1.0000 0.47310  0.47310  0.09270  Biso   1.000  C
  C43      1.0000 0.47310  0.47310  0.96110  Biso   1.000  C
  C44      1.0000 0.96110  0.09270  0.47310  Biso   1.000  C
  C45      1.0000 0.52690  0.90730  0.52690  Biso   1.000  C
  C46      1.0000 0.90730  0.52690  0.03890  Biso   1.000  C
  C47      1.0000 0.03890  0.52690  0.90730  Biso   1.000  C
  C48      1.0000 0.52690  0.03890  0.52690  Biso   1.000  C
  C49      1.0000 0.52690  0.90730  0.03890  Biso   1.000  C
  C50      1.0000 0.03890  0.52690  0.52690  Biso   1.000  C
  C51      1.0000 0.90730  0.52690  0.52690  Biso   1.000  C
  C52      1.0000 0.52690  0.03890  0.90730  Biso   1.000  C
  C53      1.0000 0.03890  0.90730  0.52690  Biso   1.000  C
  C54      1.0000 0.52690  0.52690  0.90730  Biso   1.000  C
  C55      1.0000 0.52690  0.52690  0.03890  Biso   1.000  C
  C56      1.0000 0.90730  0.03890  0.52690  Biso   1.000  C
  C57      1.0000 0.11130  0.38870  0.38870  Biso   1.000  C
  C58      1.0000 0.05380  0.44620  0.44620  Biso   1.000  C
  C59      1.0000 0.38870  0.11130  0.11130  Biso   1.000  C
  C60      1.0000 0.44620  0.05380  0.05380  Biso   1.000  C
  C61      1.0000 0.11130  0.38870  0.11130  Biso   1.000  C
  C62      1.0000 0.05380  0.44620  0.05380  Biso   1.000  C
  C63      1.0000 0.38870  0.11130  0.38870  Biso   1.000  C
  C64      1.0000 0.44620  0.05380  0.44620  Biso   1.000  C
  C65      1.0000 0.11130  0.11130  0.38870  Biso   1.000  C
  C66      1.0000 0.05380  0.05380  0.44620  Biso   1.000  C
  C67      1.0000 0.38870  0.38870  0.11130  Biso   1.000  C
  C68      1.0000 0.44620  0.44620  0.05380  Biso   1.000  C
  C69      1.0000 0.61130  0.88870  0.61130  Biso   1.000  C
  C70      1.0000 0.55380  0.94620  0.55380  Biso   1.000  C
  C71      1.0000 0.88870  0.61130  0.88870  Biso   1.000  C
  C72      1.0000 0.94620  0.55380  0.94620  Biso   1.000  C
  C73      1.0000 0.61130  0.88870  0.88870  Biso   1.000  C
  C74      1.0000 0.55380  0.94620  0.94620  Biso   1.000  C
  C75      1.0000 0.88870  0.61130  0.61130  Biso   1.000  C
  C76      1.0000 0.94620  0.55380  0.55380  Biso   1.000  C
  C77      1.0000 0.88870  0.88870  0.61130  Biso   1.000  C
  C78      1.0000 0.94620  0.94620  0.55380  Biso   1.000  C
  C79      1.0000 0.61130  0.61130  0.88870  Biso   1.000  C
  C80      1.0000 0.55380  0.55380  0.94620  Biso   1.000  C
  C81      1.0000 0.25000  0.25000  0.25000  Biso   1.000  C
  C82      1.0000 0.75000  0.75000  0.75000  Biso   1.000  C
  C83      1.0000 0.19777  0.36600  0.36600  Biso   1.000  C
  C84      1.0000 0.36600  0.19777  0.07023  Biso   1.000  C
  C85      1.0000 0.36600  0.07023  0.19777  Biso   1.000  C
  C86      1.0000 0.07023  0.36600  0.36600  Biso   1.000  C
  C87      1.0000 0.19777  0.36600  0.07023  Biso   1.000  C
  C88      1.0000 0.36600  0.07023  0.36600  Biso   1.000  C
  C89      1.0000 0.36600  0.19777  0.36600  Biso   1.000  C
  C90      1.0000 0.07023  0.36600  0.19777  Biso   1.000  C
  C91      1.0000 0.19777  0.07023  0.36600  Biso   1.000  C
  C92      1.0000 0.36600  0.36600  0.19777  Biso   1.000  C
  C93      1.0000 0.36600  0.36600  0.07023  Biso   1.000  C
  C94      1.0000 0.07023  0.19777  0.36600  Biso   1.000  C
  C95      1.0000 0.63400  0.80223  0.63400  Biso   1.000  C
  C96      1.0000 0.80223  0.63400  0.92977  Biso   1.000  C
  C97      1.0000 0.92977  0.63400  0.80223  Biso   1.000  C
  C98      1.0000 0.63400  0.92977  0.63400  Biso   1.000  C
  C99      1.0000 0.63400  0.80223  0.92977  Biso   1.000  C
  C100     1.0000 0.92977  0.63400  0.63400  Biso   1.000  C
  C101     1.0000 0.80223  0.63400  0.63400  Biso   1.000  C
  C102     1.0000 0.63400  0.92977  0.80223  Biso   1.000  C
  C103     1.0000 0.92977  0.80223  0.63400  Biso   1.000  C
  C104     1.0000 0.63400  0.63400  0.80223  Biso   1.000  C
  C105     1.0000 0.63400  0.63400  0.92977  Biso   1.000  C
  C106     1.0000 0.80223  0.92977  0.63400  Biso   1.000  C
  O1       1.0000 0.16424  0.00000  0.00000  Biso   1.000  O
  O2       1.0000 0.57687  0.58724  0.41290  Biso   1.000  O
  O3       1.0000 0.57687  0.41249  0.41290  Biso   1.000  O
  O4       1.0000 0.16424  0.82525  0.00000  Biso   1.000  O
  O5       1.0000 0.16378  0.00034  0.82503  Biso   1.000  O
  O6       1.0000 0.98909  0.00015  0.00010  Biso   1.000  O
  O7       1.0000 0.57732  0.41216  0.58786  Biso   1.000  O
  O8       1.0000 0.75201  0.41234  0.41280  Biso   1.000  O
  O9       1.0000 0.32798  0.64500  0.85654  Biso   1.000  O
  O10      1.0000 0.32090  0.86042  0.64499  Biso   1.000  O
  O11      1.0000 0.02433  0.64609  0.16003  Biso   1.000  O
  O12      1.0000 0.80622  0.85789  0.16232  Biso   1.000  O
  O13      1.0000 0.32879  0.85989  0.15753  Biso   1.000  O
  O14      1.0000 0.41313  0.25252  0.55636  Biso   1.000  O
  O15      1.0000 0.42020  0.24931  0.76791  Biso   1.000  O
  O16      1.0000 0.71678  0.25343  0.25287  Biso   1.000  O
  O17      1.0000 0.93488  0.24944  0.25057  Biso   1.000  O
  O18      1.0000 0.41231  0.76921  0.25537  Biso   1.000  O
  O19      1.0000 0.41312  0.76749  0.55636  Biso   1.000  O
  O20      1.0000 0.42021  0.55208  0.76791  Biso   1.000  O
  O21      1.0000 0.71677  0.76641  0.25287  Biso   1.000  O
  O22      1.0000 0.93488  0.55460  0.25057  Biso   1.000  O
  O23      1.0000 0.41231  0.55260  0.25537  Biso   1.000  O
  O24      1.0000 0.32798  0.15997  0.85654  Biso   1.000  O
  O25      1.0000 0.32090  0.16318  0.64499  Biso   1.000  O
  O26      1.0000 0.02433  0.15906  0.16003  Biso   1.000  O
  O27      1.0000 0.80622  0.16306  0.16232  Biso   1.000  O
  O28      1.0000 0.32880  0.64329  0.15753  Biso   1.000  O
  O29      1.0000 0.80711  0.16187  0.85864  Biso   1.000  O
  O30      1.0000 0.02083  0.16298  0.64269  Biso   1.000  O
  O31      1.0000 0.93400  0.25062  0.55426  Biso   1.000  O
  O32      1.0000 0.72027  0.24951  0.77020  Biso   1.000  O
  O33      1.0000 0.25846  0.81674  0.82017  Biso   1.000  O
  O34      1.0000 0.31801  0.75869  0.75901  Biso   1.000  O
  O35      1.0000 0.34577  0.67069  0.79439  Biso   1.000  O
  O36      1.0000 0.34029  0.79836  0.67097  Biso   1.000  O
  O37      1.0000 0.97959  0.81992  0.09707  Biso   1.000  O
  O38      1.0000 0.92553  0.76147  0.15233  Biso   1.000  O
  O39      1.0000 0.96218  0.67226  0.17801  Biso   1.000  O
  O40      1.0000 0.83390  0.79594  0.17981  Biso   1.000  O
  O41      1.0000 0.34468  0.79784  0.17761  Biso   1.000  O
  O42      1.0000 0.48265  0.31837  0.59273  Biso   1.000  O
  O43      1.0000 0.42310  0.25871  0.65389  Biso   1.000  O
  O44      1.0000 0.39534  0.23383  0.61851  Biso   1.000  O
  O45      1.0000 0.40082  0.23263  0.74192  Biso   1.000  O
  O46      1.0000 0.76152  0.31958  0.31583  Biso   1.000  O
  O47      1.0000 0.81557  0.26233  0.26057  Biso   1.000  O
  O48      1.0000 0.77893  0.23545  0.23489  Biso   1.000  O
  O49      1.0000 0.90720  0.23265  0.23309  Biso   1.000  O
  O50      1.0000 0.39642  0.74313  0.23528  Biso   1.000  O
  O51      1.0000 0.48265  0.59575  0.59273  Biso   1.000  O
  O52      1.0000 0.42310  0.65381  0.65389  Biso   1.000  O
  O53      1.0000 0.39534  0.74181  0.61851  Biso   1.000  O
  O54      1.0000 0.40082  0.61413  0.74192  Biso   1.000  O
  O55      1.0000 0.76152  0.59257  0.31583  Biso   1.000  O
  O56      1.0000 0.81558  0.65103  0.26057  Biso   1.000  O
  O57      1.0000 0.77893  0.74023  0.23489  Biso   1.000  O
  O58      1.0000 0.90720  0.61656  0.23309  Biso   1.000  O
  O59      1.0000 0.39643  0.61466  0.23528  Biso   1.000  O
  O60      1.0000 0.25846  0.09413  0.82017  Biso   1.000  O
  O61      1.0000 0.31801  0.15378  0.75901  Biso   1.000  O
  O62      1.0000 0.34576  0.17866  0.79439  Biso   1.000  O
  O63      1.0000 0.34029  0.17987  0.67097  Biso   1.000  O
  O64      1.0000 0.97959  0.09291  0.09707  Biso   1.000  O
  O65      1.0000 0.92553  0.15017  0.15233  Biso   1.000  O
  O66      1.0000 0.96218  0.17704  0.17801  Biso   1.000  O
  O67      1.0000 0.83390  0.17984  0.17981  Biso   1.000  O
  O68      1.0000 0.34468  0.66937  0.17761  Biso   1.000  O
  O69      1.0000 0.98627  0.09493  0.81337  Biso   1.000  O
  O70      1.0000 0.92411  0.15209  0.76121  Biso   1.000  O
  O71      1.0000 0.83429  0.17926  0.79668  Biso   1.000  O
  O72      1.0000 0.95878  0.18047  0.66978  Biso   1.000  O
  O73      1.0000 0.25697  0.82172  0.08908  Biso   1.000  O
  O74      1.0000 0.31693  0.76007  0.15243  Biso   1.000  O
  O75      1.0000 0.75484  0.31757  0.59953  Biso   1.000  O
  O76      1.0000 0.81699  0.26041  0.65169  Biso   1.000  O
  O77      1.0000 0.90682  0.23323  0.61621  Biso   1.000  O
  O78      1.0000 0.78232  0.23203  0.74312  Biso   1.000  O
  O79      1.0000 0.48413  0.59077  0.32382  Biso   1.000  O
  O80      1.0000 0.42418  0.65243  0.26047  Biso   1.000  O
  O81      1.0000 0.23837  0.90208  0.77430  Biso   1.000  O
  O82      1.0000 0.23968  0.77287  0.90431  Biso   1.000  O
  O83      1.0000 0.93972  0.90306  0.07059  Biso   1.000  O
  O84      1.0000 0.06582  0.77586  0.07459  Biso   1.000  O
  O85      1.0000 0.23789  0.90406  0.07179  Biso   1.000  O
  O86      1.0000 0.50273  0.33775  0.63860  Biso   1.000  O
  O87      1.0000 0.50143  0.33985  0.50859  Biso   1.000  O
  O88      1.0000 0.80139  0.33637  0.34231  Biso   1.000  O
  O89      1.0000 0.67529  0.33926  0.33831  Biso   1.000  O
  O90      1.0000 0.50322  0.63674  0.34111  Biso   1.000  O
  O91      1.0000 0.50274  0.51042  0.63860  Biso   1.000  O
  O92      1.0000 0.50143  0.63962  0.50859  Biso   1.000  O
  O93      1.0000 0.80139  0.50943  0.34231  Biso   1.000  O
  O94      1.0000 0.67529  0.63664  0.33831  Biso   1.000  O
  O95      1.0000 0.50322  0.50843  0.34111  Biso   1.000  O
  O96      1.0000 0.23837  0.07474  0.77430  Biso   1.000  O
  O97      1.0000 0.23968  0.07264  0.90431  Biso   1.000  O
  O98      1.0000 0.93972  0.07613  0.07059  Biso   1.000  O
  O99      1.0000 0.06582  0.07323  0.07459  Biso   1.000  O
  O100     1.0000 0.23789  0.77576  0.07179  Biso   1.000  O
  O101     1.0000 0.12107  0.95623  0.95597  Biso   1.000  O
  O102     1.0000 0.06700  0.07375  0.77500  Biso   1.000  O
  O103     1.0000 0.94111  0.07604  0.89631  Biso   1.000  O
  O104     1.0000 0.62004  0.45627  0.45693  Biso   1.000  O
  O105     1.0000 0.67410  0.33875  0.63790  Biso   1.000  O
