data_image0
_cell_length_a       18.266
_cell_length_b       18.266
_cell_length_c       18.266
_cell_angle_alpha    60
_cell_angle_beta     60
_cell_angle_gamma    60

_symmetry_space_group_name_H-M    "P 1"
_symmetry_int_tables_number       1

loop_
  _symmetry_equiv_pos_as_xyz
  'x, y, z'

loop_
  _atom_site_label
  _atom_site_occupancy
  _atom_site_fract_x
  _atom_site_fract_y
  _atom_site_fract_z
  _atom_site_thermal_displace_type
  _atom_site_B_iso_or_equiv
  _atom_site_type_symbol
  Zn1      1.0000 0.29338  0.29338  0.29338  Biso   1.000  Zn
  Zn2      1.0000 0.29338  0.29338  0.11986  Biso   1.000  Zn
  Zn3      1.0000 0.29338  0.11986  0.29338  Biso   1.000  Zn
  Zn4      1.0000 0.11986  0.29338  0.29338  Biso   1.000  Zn
  Zn5      1.0000 0.70662  0.70662  0.70662  Biso   1.000  Zn
  Zn6      1.0000 0.70662  0.70662  0.88014  Biso   1.000  Zn
  Zn7      1.0000 0.88014  0.70662  0.70662  Biso   1.000  Zn
  Zn8      1.0000 0.70662  0.88014  0.70662  Biso   1.000  Zn
  H1       1.0000 0.15460  0.45520  0.45520  Biso   1.000  H
  H2       1.0000 0.45520  0.15460  0.93500  Biso   1.000  H
  H3       1.0000 0.45520  0.93500  0.15460  Biso   1.000  H
  H4       1.0000 0.93500  0.45520  0.45520  Biso   1.000  H
  H5       1.0000 0.15460  0.45520  0.93500  Biso   1.000  H
  H6       1.0000 0.45520  0.93500  0.45520  Biso   1.000  H
  H7       1.0000 0.45520  0.15460  0.45520  Biso   1.000  H
  H8       1.0000 0.93500  0.45520  0.15460  Biso   1.000  H
  H9       1.0000 0.15460  0.93500  0.45520  Biso   1.000  H
  H10      1.0000 0.45520  0.45520  0.15460  Biso   1.000  H
  H11      1.0000 0.45520  0.45520  0.93500  Biso   1.000  H
  H12      1.0000 0.93500  0.15460  0.45520  Biso   1.000  H
  H13      1.0000 0.54480  0.84540  0.54480  Biso   1.000  H
  H14      1.0000 0.84540  0.54480  0.06500  Biso   1.000  H
  H15      1.0000 0.06500  0.54480  0.84540  Biso   1.000  H
  H16      1.0000 0.54480  0.06500  0.54480  Biso   1.000  H
  H17      1.0000 0.54480  0.84540  0.06500  Biso   1.000  H
  H18      1.0000 0.06500  0.54480  0.54480  Biso   1.000  H
  H19      1.0000 0.84540  0.54480  0.54480  Biso   1.000  H
  H20      1.0000 0.54480  0.06500  0.84540  Biso   1.000  H
  H21      1.0000 0.06500  0.84540  0.54480  Biso   1.000  H
  H22      1.0000 0.54480  0.54480  0.84540  Biso   1.000  H
  H23      1.0000 0.54480  0.54480  0.06500  Biso   1.000  H
  H24      1.0000 0.84540  0.06500  0.54480  Biso   1.000  H
  C1       1.0000 0.09270  0.47310  0.47310  Biso   1.000  C
  C2       1.0000 0.47310  0.09270  0.96110  Biso   1.000  C
  C3       1.0000 0.47310  0.96110  0.09270  Biso   1.000  C
  C4       1.0000 0.96110  0.47310  0.47310  Biso   1.000  C
  C5       1.0000 0.09270  0.47310  0.96110  Biso   1.000  C
  C6       1.0000 0.47310  0.96110  0.47310  Biso   1.000  C
  C7       1.0000 0.47310  0.09270  0.47310  Biso   1.000  C
  C8       1.0000 0.96110  0.47310  0.09270  Biso   1.000  C
  C9       1.0000 0.09270  0.96110  0.47310  Biso   1.000  C
  C10      1.0000 0.47310  0.47310  0.09270  Biso   1.000  C
  C11      1.0000 0.47310  0.47310  0.96110  Biso   1.000  C
  C12      1.0000 0.96110  0.09270  0.47310  Biso   1.000  C
  C13      1.0000 0.52690  0.90730  0.52690  Biso   1.000  C
  C14      1.0000 0.90730  0.52690  0.03890  Biso   1.000  C
  C15      1.0000 0.03890  0.52690  0.90730  Biso   1.000  C
  C16      1.0000 0.52690  0.03890  0.52690  Biso   1.000  C
  C17      1.0000 0.52690  0.90730  0.03890  Biso   1.000  C
  C18      1.0000 0.03890  0.52690  0.52690  Biso   1.000  C
  C19      1.0000 0.90730  0.52690  0.52690  Biso   1.000  C
  C20      1.0000 0.52690  0.03890  0.90730  Biso   1.000  C
  C21      1.0000 0.03890  0.90730  0.52690  Biso   1.000  C
  C22      1.0000 0.52690  0.52690  0.90730  Biso   1.000  C
  C23      1.0000 0.52690  0.52690  0.03890  Biso   1.000  C
  C24      1.0000 0.90730  0.03890  0.52690  Biso   1.000  C
  C25      1.0000 0.11130  0.38870  0.38870  Biso   1.000  C
  C26      1.0000 0.05380  0.44620  0.44620  Biso   1.000  C
  C27      1.0000 0.38870  0.11130  0.11130  Biso   1.000  C
  C28      1.0000 0.44620  0.05380  0.05380  Biso   1.000  C
  C29      1.0000 0.11130  0.38870  0.11130  Biso   1.000  C
  C30      1.0000 0.05380  0.44620  0.05380  Biso   1.000  C
  C31      1.0000 0.38870  0.11130  0.38870  Biso   1.000  C
  C32      1.0000 0.44620  0.05380  0.44620  Biso   1.000  C
  C33      1.0000 0.11130  0.11130  0.38870  Biso   1.000  C
  C34      1.0000 0.05380  0.05380  0.44620  Biso   1.000  C
  C35      1.0000 0.38870  0.38870  0.11130  Biso   1.000  C
  C36      1.0000 0.44620  0.44620  0.05380  Biso   1.000  C
  C37      1.0000 0.61130  0.88870  0.61130  Biso   1.000  C
  C38      1.0000 0.55380  0.94620  0.55380  Biso   1.000  C
  C39      1.0000 0.88870  0.61130  0.88870  Biso   1.000  C
  C40      1.0000 0.94620  0.55380  0.94620  Biso   1.000  C
  C41      1.0000 0.61130  0.88870  0.88870  Biso   1.000  C
  C42      1.0000 0.55380  0.94620  0.94620  Biso   1.000  C
  C43      1.0000 0.88870  0.61130  0.61130  Biso   1.000  C
  C44      1.0000 0.94620  0.55380  0.55380  Biso   1.000  C
  C45      1.0000 0.88870  0.88870  0.61130  Biso   1.000  C
  C46      1.0000 0.94620  0.94620  0.55380  Biso   1.000  C
  C47      1.0000 0.61130  0.61130  0.88870  Biso   1.000  C
  C48      1.0000 0.55380  0.55380  0.94620  Biso   1.000  C
  O1       1.0000 0.25000  0.25000  0.25000  Biso   1.000  O
  O2       1.0000 0.75000  0.75000  0.75000  Biso   1.000  O
  O3       1.0000 0.19777  0.36600  0.36600  Biso   1.000  O
  O4       1.0000 0.36600  0.19777  0.07023  Biso   1.000  O
  O5       1.0000 0.36600  0.07023  0.19777  Biso   1.000  O
  O6       1.0000 0.07023  0.36600  0.36600  Biso   1.000  O
  O7       1.0000 0.19777  0.36600  0.07023  Biso   1.000  O
  O8       1.0000 0.36600  0.07023  0.36600  Biso   1.000  O
  O9       1.0000 0.36600  0.19777  0.36600  Biso   1.000  O
  O10      1.0000 0.07023  0.36600  0.19777  Biso   1.000  O
  O11      1.0000 0.19777  0.07023  0.36600  Biso   1.000  O
  O12      1.0000 0.36600  0.36600  0.19777  Biso   1.000  O
  O13      1.0000 0.36600  0.36600  0.07023  Biso   1.000  O
  O14      1.0000 0.07023  0.19777  0.36600  Biso   1.000  O
  O15      1.0000 0.63400  0.80223  0.63400  Biso   1.000  O
  O16      1.0000 0.80223  0.63400  0.92977  Biso   1.000  O
  O17      1.0000 0.92977  0.63400  0.80223  Biso   1.000  O
  O18      1.0000 0.63400  0.92977  0.63400  Biso   1.000  O
  O19      1.0000 0.63400  0.80223  0.92977  Biso   1.000  O
  O20      1.0000 0.92977  0.63400  0.63400  Biso   1.000  O
  O21      1.0000 0.80223  0.63400  0.63400  Biso   1.000  O
  O22      1.0000 0.63400  0.92977  0.80223  Biso   1.000  O
  O23      1.0000 0.92977  0.80223  0.63400  Biso   1.000  O
  O24      1.0000 0.63400  0.63400  0.80223  Biso   1.000  O
  O25      1.0000 0.63400  0.63400  0.92977  Biso   1.000  O
  O26      1.0000 0.80223  0.92977  0.63400  Biso   1.000  O
  Zn9      1.0000 0.50286  0.52041  0.33525  Biso   1.000  Zn
  Zn10     1.0000 0.50286  0.52041  0.50924  Biso   1.000  Zn
  Zn11     1.0000 0.32888  0.52041  0.50924  Biso   1.000  Zn
  Zn12     1.0000 0.50286  0.34642  0.50924  Biso   1.000  Zn
  Zn13     1.0000 0.91506  0.93259  0.09540  Biso   1.000  Zn
  Zn14     1.0000 0.91506  0.93259  0.92142  Biso   1.000  Zn
  Zn15     1.0000 0.91506  0.10657  0.92142  Biso   1.000  Zn
  Zn16     1.0000 0.08904  0.93259  0.92142  Biso   1.000  Zn
  H25      1.0000 0.66503  0.68257  0.15101  Biso   1.000  H
  H26      1.0000 0.66503  0.68257  0.36750  Biso   1.000  H
  H27      1.0000 0.14464  0.37867  0.67140  Biso   1.000  H
  H28      1.0000 0.36113  0.16218  0.67140  Biso   1.000  H
  H29      1.0000 0.66503  0.16218  0.36750  Biso   1.000  H
  H30      1.0000 0.66503  0.37867  0.15101  Biso   1.000  H
  H31      1.0000 0.14464  0.68257  0.67140  Biso   1.000  H
  H32      1.0000 0.36113  0.68257  0.67140  Biso   1.000  H
  H33      1.0000 0.66503  0.37867  0.67140  Biso   1.000  H
  H34      1.0000 0.66503  0.16218  0.67140  Biso   1.000  H
  H35      1.0000 0.14464  0.68257  0.36750  Biso   1.000  H
  H36      1.0000 0.36113  0.68257  0.15101  Biso   1.000  H
  H37      1.0000 0.75289  0.77042  0.27964  Biso   1.000  H
  H38      1.0000 0.75289  0.77042  0.06315  Biso   1.000  H
  H39      1.0000 0.05679  0.29082  0.75925  Biso   1.000  H
  H40      1.0000 0.27328  0.07432  0.75925  Biso   1.000  H
  H41      1.0000 0.27328  0.77042  0.06315  Biso   1.000  H
  H42      1.0000 0.05679  0.77042  0.27964  Biso   1.000  H
  H43      1.0000 0.75289  0.29082  0.75925  Biso   1.000  H
  H44      1.0000 0.75289  0.07432  0.75925  Biso   1.000  H
  H45      1.0000 0.05679  0.77042  0.75925  Biso   1.000  H
  H46      1.0000 0.27328  0.77042  0.75925  Biso   1.000  H
  H47      1.0000 0.75289  0.29082  0.06315  Biso   1.000  H
  H48      1.0000 0.75289  0.07432  0.27964  Biso   1.000  H
  C49      1.0000 0.68260  0.70014  0.17776  Biso   1.000  C
  C50      1.0000 0.68260  0.70014  0.30560  Biso   1.000  C
  C51      1.0000 0.17140  0.31677  0.68897  Biso   1.000  C
  C52      1.0000 0.29924  0.18893  0.68897  Biso   1.000  C
  C53      1.0000 0.68260  0.18893  0.30560  Biso   1.000  C
  C54      1.0000 0.68260  0.31677  0.17776  Biso   1.000  C
  C55      1.0000 0.17140  0.70014  0.68897  Biso   1.000  C
  C56      1.0000 0.29924  0.70014  0.68897  Biso   1.000  C
  C57      1.0000 0.68260  0.31677  0.68897  Biso   1.000  C
  C58      1.0000 0.68260  0.18893  0.68897  Biso   1.000  C
  C59      1.0000 0.17140  0.70014  0.30560  Biso   1.000  C
  C60      1.0000 0.29924  0.70014  0.17776  Biso   1.000  C
  C61      1.0000 0.73532  0.75285  0.25289  Biso   1.000  C
  C62      1.0000 0.73532  0.75285  0.12505  Biso   1.000  C
  C63      1.0000 0.11868  0.26406  0.74168  Biso   1.000  C
  C64      1.0000 0.24652  0.13622  0.74168  Biso   1.000  C
  C65      1.0000 0.24652  0.75285  0.12505  Biso   1.000  C
  C66      1.0000 0.11868  0.75285  0.25289  Biso   1.000  C
  C67      1.0000 0.73532  0.26406  0.74168  Biso   1.000  C
  C68      1.0000 0.73532  0.13622  0.74168  Biso   1.000  C
  C69      1.0000 0.11868  0.75285  0.74168  Biso   1.000  C
  C70      1.0000 0.24652  0.75285  0.74168  Biso   1.000  C
  C71      1.0000 0.73532  0.26406  0.12505  Biso   1.000  C
  C72      1.0000 0.73532  0.13622  0.25289  Biso   1.000  C
  C73      1.0000 0.59774  0.61528  0.32737  Biso   1.000  C
  C74      1.0000 0.65535  0.67289  0.26976  Biso   1.000  C
  C75      1.0000 0.32100  0.33854  0.60411  Biso   1.000  C
  C76      1.0000 0.26340  0.28093  0.66171  Biso   1.000  C
  C77      1.0000 0.59774  0.33854  0.32737  Biso   1.000  C
  C78      1.0000 0.65535  0.28093  0.26976  Biso   1.000  C
  C79      1.0000 0.32100  0.61528  0.60411  Biso   1.000  C
  C80      1.0000 0.26340  0.67289  0.66171  Biso   1.000  C
  C81      1.0000 0.59774  0.33854  0.60411  Biso   1.000  C
  C82      1.0000 0.65535  0.28093  0.66171  Biso   1.000  C
  C83      1.0000 0.32100  0.61528  0.32737  Biso   1.000  C
  C84      1.0000 0.26340  0.67289  0.26976  Biso   1.000  C
  C85      1.0000 0.82018  0.83771  0.10328  Biso   1.000  C
  C86      1.0000 0.76257  0.78011  0.16089  Biso   1.000  C
  C87      1.0000 0.09692  0.11446  0.82654  Biso   1.000  C
  C88      1.0000 0.15453  0.17206  0.76894  Biso   1.000  C
  C89      1.0000 0.09692  0.83771  0.10328  Biso   1.000  C
  C90      1.0000 0.15453  0.78011  0.16089  Biso   1.000  C
  C91      1.0000 0.82018  0.11446  0.82654  Biso   1.000  C
  C92      1.0000 0.76257  0.17206  0.76894  Biso   1.000  C
  C93      1.0000 0.09692  0.83771  0.82654  Biso   1.000  C
  C94      1.0000 0.15453  0.78011  0.76894  Biso   1.000  C
  C95      1.0000 0.82018  0.11446  0.10328  Biso   1.000  C
  C96      1.0000 0.76257  0.17206  0.16089  Biso   1.000  C
  O27      1.0000 0.45937  0.47691  0.46574  Biso   1.000  O
  O28      1.0000 0.95855  0.97609  0.96491  Biso   1.000  O
  O29      1.0000 0.57523  0.59277  0.28926  Biso   1.000  O
  O30      1.0000 0.57523  0.59277  0.41050  Biso   1.000  O
  O31      1.0000 0.28289  0.42167  0.58160  Biso   1.000  O
  O32      1.0000 0.40413  0.30043  0.58160  Biso   1.000  O
  O33      1.0000 0.57523  0.30043  0.41050  Biso   1.000  O
  O34      1.0000 0.57523  0.42167  0.28926  Biso   1.000  O
  O35      1.0000 0.28289  0.59277  0.58160  Biso   1.000  O
  O36      1.0000 0.40413  0.59277  0.58160  Biso   1.000  O
  O37      1.0000 0.57523  0.42167  0.58160  Biso   1.000  O
  O38      1.0000 0.57523  0.30043  0.58160  Biso   1.000  O
  O39      1.0000 0.28289  0.59277  0.41050  Biso   1.000  O
  O40      1.0000 0.40413  0.59277  0.28926  Biso   1.000  O
  O41      1.0000 0.84269  0.86023  0.14139  Biso   1.000  O
  O42      1.0000 0.84269  0.86023  0.02015  Biso   1.000  O
  O43      1.0000 0.01379  0.15256  0.84905  Biso   1.000  O
  O44      1.0000 0.13503  0.03132  0.84905  Biso   1.000  O
  O45      1.0000 0.13503  0.86023  0.02015  Biso   1.000  O
  O46      1.0000 0.01379  0.86023  0.14139  Biso   1.000  O
  O47      1.0000 0.84269  0.15256  0.84905  Biso   1.000  O
  O48      1.0000 0.84269  0.03132  0.84905  Biso   1.000  O
  O49      1.0000 0.01379  0.86023  0.84905  Biso   1.000  O
  O50      1.0000 0.13503  0.86023  0.84905  Biso   1.000  O
  O51      1.0000 0.84269  0.15256  0.02015  Biso   1.000  O
