data_image0
_cell_length_a       18.266
_cell_length_b       18.266
_cell_length_c       18.266
_cell_angle_alpha    60
_cell_angle_beta     60
_cell_angle_gamma    60

_symmetry_space_group_name_H-M    "P 1"
_symmetry_int_tables_number       1

loop_
  _symmetry_equiv_pos_as_xyz
  'x, y, z'

loop_
  _atom_site_label
  _atom_site_occupancy
  _atom_site_fract_x
  _atom_site_fract_y
  _atom_site_fract_z
  _atom_site_thermal_displace_type
  _atom_site_B_iso_or_equiv
  _atom_site_type_symbol
  C1       1.0000 0.29338  0.29338  0.29338  Biso   1.000  C
  C2       1.0000 0.29338  0.29338  0.11986  Biso   1.000  C
  C3       1.0000 0.29338  0.11986  0.29338  Biso   1.000  C
  C4       1.0000 0.11986  0.29338  0.29338  Biso   1.000  C
  C5       1.0000 0.70662  0.70662  0.70662  Biso   1.000  C
  C6       1.0000 0.70662  0.70662  0.88014  Biso   1.000  C
  C7       1.0000 0.88014  0.70662  0.70662  Biso   1.000  C
  C8       1.0000 0.70662  0.88014  0.70662  Biso   1.000  C
  C9       1.0000 0.15460  0.45520  0.45520  Biso   1.000  C
  C10      1.0000 0.45520  0.15460  0.93500  Biso   1.000  C
  C11      1.0000 0.45520  0.93500  0.15460  Biso   1.000  C
  C12      1.0000 0.93500  0.45520  0.45520  Biso   1.000  C
  C13      1.0000 0.15460  0.45520  0.93500  Biso   1.000  C
  C14      1.0000 0.45520  0.93500  0.45520  Biso   1.000  C
  C15      1.0000 0.45520  0.15460  0.45520  Biso   1.000  C
  C16      1.0000 0.93500  0.45520  0.15460  Biso   1.000  C
  C17      1.0000 0.15460  0.93500  0.45520  Biso   1.000  C
  C18      1.0000 0.45520  0.45520  0.15460  Biso   1.000  C
  C19      1.0000 0.45520  0.45520  0.93500  Biso   1.000  C
  C20      1.0000 0.93500  0.15460  0.45520  Biso   1.000  C
  C21      1.0000 0.54480  0.84540  0.54480  Biso   1.000  C
  C22      1.0000 0.84540  0.54480  0.06500  Biso   1.000  C
  C23      1.0000 0.06500  0.54480  0.84540  Biso   1.000  C
  C24      1.0000 0.54480  0.06500  0.54480  Biso   1.000  C
  C25      1.0000 0.54480  0.84540  0.06500  Biso   1.000  C
  C26      1.0000 0.06500  0.54480  0.54480  Biso   1.000  C
  C27      1.0000 0.84540  0.54480  0.54480  Biso   1.000  C
  C28      1.0000 0.54480  0.06500  0.84540  Biso   1.000  C
  C29      1.0000 0.06500  0.84540  0.54480  Biso   1.000  C
  C30      1.0000 0.54480  0.54480  0.84540  Biso   1.000  C
  C31      1.0000 0.54480  0.54480  0.06500  Biso   1.000  C
  C32      1.0000 0.84540  0.06500  0.54480  Biso   1.000  C
  C33      1.0000 0.09270  0.47310  0.47310  Biso   1.000  C
  C34      1.0000 0.47310  0.09270  0.96110  Biso   1.000  C
  C35      1.0000 0.47310  0.96110  0.09270  Biso   1.000  C
  C36      1.0000 0.96110  0.47310  0.47310  Biso   1.000  C
  C37      1.0000 0.09270  0.47310  0.96110  Biso   1.000  C
  C38      1.0000 0.47310  0.96110  0.47310  Biso   1.000  C
  C39      1.0000 0.47310  0.09270  0.47310  Biso   1.000  C
  C40      1.0000 0.96110  0.47310  0.09270  Biso   1.000  C
  C41      1.0000 0.09270  0.96110  0.47310  Biso   1.000  C
  C42      1.0000 0.47310  0.47310  0.09270  Biso   1.000  C
  C43      1.0000 0.47310  0.47310  0.96110  Biso   1.000  C
  C44      1.0000 0.96110  0.09270  0.47310  Biso   1.000  C
  C45      1.0000 0.52690  0.90730  0.52690  Biso   1.000  C
  C46      1.0000 0.90730  0.52690  0.03890  Biso   1.000  C
  C47      1.0000 0.03890  0.52690  0.90730  Biso   1.000  C
  C48      1.0000 0.52690  0.03890  0.52690  Biso   1.000  C
  C49      1.0000 0.52690  0.90730  0.03890  Biso   1.000  C
  C50      1.0000 0.03890  0.52690  0.52690  Biso   1.000  C
  C51      1.0000 0.90730  0.52690  0.52690  Biso   1.000  C
  C52      1.0000 0.52690  0.03890  0.90730  Biso   1.000  C
  C53      1.0000 0.03890  0.90730  0.52690  Biso   1.000  C
  C54      1.0000 0.52690  0.52690  0.90730  Biso   1.000  C
  C55      1.0000 0.52690  0.52690  0.03890  Biso   1.000  C
  C56      1.0000 0.90730  0.03890  0.52690  Biso   1.000  C
  C57      1.0000 0.11130  0.38870  0.38870  Biso   1.000  C
  C58      1.0000 0.05380  0.44620  0.44620  Biso   1.000  C
  C59      1.0000 0.38870  0.11130  0.11130  Biso   1.000  C
  C60      1.0000 0.44620  0.05380  0.05380  Biso   1.000  C
  C61      1.0000 0.11130  0.38870  0.11130  Biso   1.000  C
  C62      1.0000 0.05380  0.44620  0.05380  Biso   1.000  C
  C63      1.0000 0.38870  0.11130  0.38870  Biso   1.000  C
  C64      1.0000 0.44620  0.05380  0.44620  Biso   1.000  C
  C65      1.0000 0.11130  0.11130  0.38870  Biso   1.000  C
  C66      1.0000 0.05380  0.05380  0.44620  Biso   1.000  C
  C67      1.0000 0.38870  0.38870  0.11130  Biso   1.000  C
  C68      1.0000 0.44620  0.44620  0.05380  Biso   1.000  C
  C69      1.0000 0.61130  0.88870  0.61130  Biso   1.000  C
  C70      1.0000 0.55380  0.94620  0.55380  Biso   1.000  C
  C71      1.0000 0.88870  0.61130  0.88870  Biso   1.000  C
  C72      1.0000 0.94620  0.55380  0.94620  Biso   1.000  C
  C73      1.0000 0.61130  0.88870  0.88870  Biso   1.000  C
  C74      1.0000 0.55380  0.94620  0.94620  Biso   1.000  C
  C75      1.0000 0.88870  0.61130  0.61130  Biso   1.000  C
  C76      1.0000 0.94620  0.55380  0.55380  Biso   1.000  C
  C77      1.0000 0.88870  0.88870  0.61130  Biso   1.000  C
  C78      1.0000 0.94620  0.94620  0.55380  Biso   1.000  C
  C79      1.0000 0.61130  0.61130  0.88870  Biso   1.000  C
  C80      1.0000 0.55380  0.55380  0.94620  Biso   1.000  C
  C81      1.0000 0.25000  0.25000  0.25000  Biso   1.000  C
  C82      1.0000 0.75000  0.75000  0.75000  Biso   1.000  C
  C83      1.0000 0.19777  0.36600  0.36600  Biso   1.000  C
  C84      1.0000 0.36600  0.19777  0.07023  Biso   1.000  C
  C85      1.0000 0.36600  0.07023  0.19777  Biso   1.000  C
  C86      1.0000 0.07023  0.36600  0.36600  Biso   1.000  C
  C87      1.0000 0.19777  0.36600  0.07023  Biso   1.000  C
  C88      1.0000 0.36600  0.07023  0.36600  Biso   1.000  C
  C89      1.0000 0.36600  0.19777  0.36600  Biso   1.000  C
  C90      1.0000 0.07023  0.36600  0.19777  Biso   1.000  C
  C91      1.0000 0.19777  0.07023  0.36600  Biso   1.000  C
  C92      1.0000 0.36600  0.36600  0.19777  Biso   1.000  C
  C93      1.0000 0.36600  0.36600  0.07023  Biso   1.000  C
  C94      1.0000 0.07023  0.19777  0.36600  Biso   1.000  C
  C95      1.0000 0.63400  0.80223  0.63400  Biso   1.000  C
  C96      1.0000 0.80223  0.63400  0.92977  Biso   1.000  C
  C97      1.0000 0.92977  0.63400  0.80223  Biso   1.000  C
  C98      1.0000 0.63400  0.92977  0.63400  Biso   1.000  C
  C99      1.0000 0.63400  0.80223  0.92977  Biso   1.000  C
  C100     1.0000 0.92977  0.63400  0.63400  Biso   1.000  C
  C101     1.0000 0.80223  0.63400  0.63400  Biso   1.000  C
  C102     1.0000 0.63400  0.92977  0.80223  Biso   1.000  C
  C103     1.0000 0.92977  0.80223  0.63400  Biso   1.000  C
  C104     1.0000 0.63400  0.63400  0.80223  Biso   1.000  C
  C105     1.0000 0.63400  0.63400  0.92977  Biso   1.000  C
  C106     1.0000 0.80223  0.92977  0.63400  Biso   1.000  C
  O1       1.0000 0.99342  0.97376  0.87166  Biso   1.000  O
  O2       1.0000 0.99346  0.14595  0.87161  Biso   1.000  O
  O3       1.0000 0.16566  0.97376  0.87166  Biso   1.000  O
  O4       1.0000 0.99347  0.97372  0.04384  Biso   1.000  O
  O5       1.0000 0.57642  0.56300  0.46091  Biso   1.000  O
  O6       1.0000 0.57637  0.39081  0.46096  Biso   1.000  O
  O7       1.0000 0.40418  0.56300  0.46091  Biso   1.000  O
  O8       1.0000 0.57637  0.56305  0.28872  Biso   1.000  O
  O9       1.0000 0.81413  0.17339  0.69332  Biso   1.000  O
  O10      1.0000 0.19330  0.79521  0.69132  Biso   1.000  O
  O11      1.0000 0.81353  0.79621  0.07129  Biso   1.000  O
  O12      1.0000 0.81514  0.31030  0.69232  Biso   1.000  O
  O13      1.0000 0.81314  0.31131  0.07149  Biso   1.000  O
  O14      1.0000 0.19311  0.31011  0.69172  Biso   1.000  O
  O15      1.0000 0.32366  0.79543  0.07128  Biso   1.000  O
  O16      1.0000 0.32466  0.79342  0.69311  Biso   1.000  O
  O17      1.0000 0.32346  0.17340  0.69410  Biso   1.000  O
  O18      1.0000 0.18674  0.79442  0.20820  Biso   1.000  O
  O19      1.0000 0.80856  0.17359  0.20921  Biso   1.000  O
  O20      1.0000 0.80956  0.79382  0.20801  Biso   1.000  O
  O21      1.0000 0.75570  0.36338  0.63924  Biso   1.000  O
  O22      1.0000 0.37653  0.74156  0.64124  Biso   1.000  O
  O23      1.0000 0.75630  0.74056  0.26127  Biso   1.000  O
  O24      1.0000 0.75469  0.22647  0.64024  Biso   1.000  O
  O25      1.0000 0.75669  0.22546  0.26107  Biso   1.000  O
  O26      1.0000 0.37672  0.22666  0.64084  Biso   1.000  O
  O27      1.0000 0.24618  0.74134  0.26128  Biso   1.000  O
  O28      1.0000 0.24517  0.74334  0.63945  Biso   1.000  O
  O29      1.0000 0.24637  0.36337  0.63846  Biso   1.000  O
  O30      1.0000 0.38310  0.74234  0.12436  Biso   1.000  O
  O31      1.0000 0.76127  0.36318  0.12336  Biso   1.000  O
  O32      1.0000 0.76027  0.74295  0.12455  Biso   1.000  O
  O33      1.0000 0.84154  0.21175  0.71974  Biso   1.000  O
  O34      1.0000 0.89985  0.15345  0.77805  Biso   1.000  O
  O35      1.0000 0.23146  0.82185  0.10964  Biso   1.000  O
  O36      1.0000 0.17315  0.88015  0.05134  Biso   1.000  O
  O37      1.0000 0.72829  0.32502  0.61282  Biso   1.000  O
  O38      1.0000 0.66998  0.38332  0.55452  Biso   1.000  O
  O39      1.0000 0.33838  0.71492  0.22292  Biso   1.000  O
  O40      1.0000 0.39669  0.65662  0.28123  Biso   1.000  O
  O41      1.0000 0.84135  0.82165  0.10984  Biso   1.000  O
  O42      1.0000 0.89938  0.87968  0.05181  Biso   1.000  O
  O43      1.0000 0.23165  0.21195  0.71954  Biso   1.000  O
  O44      1.0000 0.17362  0.15392  0.77757  Biso   1.000  O
  O45      1.0000 0.72848  0.71512  0.22272  Biso   1.000  O
  O46      1.0000 0.67045  0.65709  0.28075  Biso   1.000  O
  O47      1.0000 0.33819  0.32482  0.61302  Biso   1.000  O
  O48      1.0000 0.39621  0.38285  0.55499  Biso   1.000  O
  O49      1.0000 0.23186  0.82145  0.71934  Biso   1.000  O
  O50      1.0000 0.17383  0.87948  0.77737  Biso   1.000  O
  O51      1.0000 0.84115  0.21215  0.11004  Biso   1.000  O
  O52      1.0000 0.89918  0.15412  0.05201  Biso   1.000  O
  O53      1.0000 0.33798  0.71532  0.61322  Biso   1.000  O
  O54      1.0000 0.39601  0.65729  0.55519  Biso   1.000  O
  O55      1.0000 0.72869  0.32461  0.22252  Biso   1.000  O
  O56      1.0000 0.67066  0.38264  0.28055  Biso   1.000  O
  O57      1.0000 0.92231  0.06974  0.79891  Biso   1.000  O
  O58      1.0000 0.92039  0.90261  0.96847  Biso   1.000  O
  O59      1.0000 0.08903  0.90225  0.79933  Biso   1.000  O
  O60      1.0000 0.92072  0.19383  0.80050  Biso   1.000  O
  O61      1.0000 0.09027  0.19333  0.79857  Biso   1.000  O
  O62      1.0000 0.92114  0.19419  0.96722  Biso   1.000  O
  O63      1.0000 0.21353  0.90102  0.96763  Biso   1.000  O
  O64      1.0000 0.21303  0.07058  0.80050  Biso   1.000  O
  O65      1.0000 0.21389  0.90144  0.80014  Biso   1.000  O
  O66      1.0000 0.08944  0.90261  0.09172  Biso   1.000  O
  O67      1.0000 0.92231  0.90068  0.09122  Biso   1.000  O
  O68      1.0000 0.92195  0.06933  0.09208  Biso   1.000  O
  O69      1.0000 0.64752  0.46703  0.53365  Biso   1.000  O
  O70      1.0000 0.64945  0.63416  0.36410  Biso   1.000  O
  O71      1.0000 0.48081  0.63452  0.53323  Biso   1.000  O
  O72      1.0000 0.64912  0.34294  0.53206  Biso   1.000  O
  O73      1.0000 0.47956  0.34344  0.53399  Biso   1.000  O
  O74      1.0000 0.64870  0.34258  0.36535  Biso   1.000  O
  O75      1.0000 0.35630  0.63575  0.36493  Biso   1.000  O
  O76      1.0000 0.35680  0.46619  0.53206  Biso   1.000  O
  O77      1.0000 0.35595  0.63533  0.53242  Biso   1.000  O
  O78      1.0000 0.48039  0.63416  0.24084  Biso   1.000  O
  O79      1.0000 0.64752  0.63609  0.24134  Biso   1.000  O
  O80      1.0000 0.64788  0.46744  0.24049  Biso   1.000  O
  O81      1.0000 0.03650  0.01680  0.91469  Biso   1.000  O
  O82      1.0000 0.53333  0.51997  0.41787  Biso   1.000  O
  O83      1.0000 0.11719  0.81802  0.71265  Biso   1.000  O
  O84      1.0000 0.35664  0.81476  0.71591  Biso   1.000  O
  O85      1.0000 0.45265  0.71875  0.61991  Biso   1.000  O
  O86      1.0000 0.21320  0.72201  0.61665  Biso   1.000  O
  O87      1.0000 0.35544  0.09729  0.71716  Biso   1.000  O
  O88      1.0000 0.45283  0.19468  0.61977  Biso   1.000  O
  O89      1.0000 0.83461  0.81926  0.99519  Biso   1.000  O
  O90      1.0000 0.73722  0.72188  0.09257  Biso   1.000  O
  O91      1.0000 0.83762  0.34229  0.71398  Biso   1.000  O
  O92      1.0000 0.83448  0.34328  0.99538  Biso   1.000  O
  O93      1.0000 0.45921  0.72069  0.09237  Biso   1.000  O
  O94      1.0000 0.73847  0.43929  0.09138  Biso   1.000  O
  O95      1.0000 0.11701  0.34209  0.71279  Biso   1.000  O
  O96      1.0000 0.21440  0.43947  0.61541  Biso   1.000  O
  O97      1.0000 0.83261  0.81489  0.23999  Biso   1.000  O
  O98      1.0000 0.73523  0.71751  0.33738  Biso   1.000  O
  O99      1.0000 0.21419  0.71887  0.33740  Biso   1.000  O
  O100     1.0000 0.83137  0.09748  0.24118  Biso   1.000  O
  O101     1.0000 0.73536  0.19349  0.33719  Biso   1.000  O
  O102     1.0000 0.11063  0.81608  0.24019  Biso   1.000  O
  O103     1.0000 0.73222  0.19448  0.61859  Biso   1.000  O
  O104     1.0000 0.83578  0.09727  0.71579  Biso   1.000  O
  O105     1.0000 0.73405  0.43949  0.61677  Biso   1.000  O
