data_image0
_cell_length_a       18.266
_cell_length_b       18.266
_cell_length_c       18.266
_cell_angle_alpha    60
_cell_angle_beta     60
_cell_angle_gamma    60

_symmetry_space_group_name_H-M    "P 1"
_symmetry_int_tables_number       1

loop_
  _symmetry_equiv_pos_as_xyz
  'x, y, z'

loop_
  _atom_site_label
  _atom_site_occupancy
  _atom_site_fract_x
  _atom_site_fract_y
  _atom_site_fract_z
  _atom_site_thermal_displace_type
  _atom_site_B_iso_or_equiv
  _atom_site_type_symbol
  Zn1      1.0000 0.29338  0.29338  0.29338  Biso   1.000  Zn
  Zn2      1.0000 0.29338  0.29338  0.11986  Biso   1.000  Zn
  Zn3      1.0000 0.29338  0.11986  0.29338  Biso   1.000  Zn
  Zn4      1.0000 0.11986  0.29338  0.29338  Biso   1.000  Zn
  Zn5      1.0000 0.70662  0.70662  0.70662  Biso   1.000  Zn
  Zn6      1.0000 0.70662  0.70662  0.88014  Biso   1.000  Zn
  Zn7      1.0000 0.88014  0.70662  0.70662  Biso   1.000  Zn
  Zn8      1.0000 0.70662  0.88014  0.70662  Biso   1.000  Zn
  H1       1.0000 0.15460  0.45520  0.45520  Biso   1.000  H
  H2       1.0000 0.45520  0.15460  0.93500  Biso   1.000  H
  H3       1.0000 0.45520  0.93500  0.15460  Biso   1.000  H
  H4       1.0000 0.93500  0.45520  0.45520  Biso   1.000  H
  H5       1.0000 0.15460  0.45520  0.93500  Biso   1.000  H
  H6       1.0000 0.45520  0.93500  0.45520  Biso   1.000  H
  H7       1.0000 0.45520  0.15460  0.45520  Biso   1.000  H
  H8       1.0000 0.93500  0.45520  0.15460  Biso   1.000  H
  H9       1.0000 0.15460  0.93500  0.45520  Biso   1.000  H
  H10      1.0000 0.45520  0.45520  0.15460  Biso   1.000  H
  H11      1.0000 0.45520  0.45520  0.93500  Biso   1.000  H
  H12      1.0000 0.93500  0.15460  0.45520  Biso   1.000  H
  H13      1.0000 0.54480  0.84540  0.54480  Biso   1.000  H
  H14      1.0000 0.84540  0.54480  0.06500  Biso   1.000  H
  H15      1.0000 0.06500  0.54480  0.84540  Biso   1.000  H
  H16      1.0000 0.54480  0.06500  0.54480  Biso   1.000  H
  H17      1.0000 0.54480  0.84540  0.06500  Biso   1.000  H
  H18      1.0000 0.06500  0.54480  0.54480  Biso   1.000  H
  H19      1.0000 0.84540  0.54480  0.54480  Biso   1.000  H
  H20      1.0000 0.54480  0.06500  0.84540  Biso   1.000  H
  H21      1.0000 0.06500  0.84540  0.54480  Biso   1.000  H
  H22      1.0000 0.54480  0.54480  0.84540  Biso   1.000  H
  H23      1.0000 0.54480  0.54480  0.06500  Biso   1.000  H
  H24      1.0000 0.84540  0.06500  0.54480  Biso   1.000  H
  C1       1.0000 0.09270  0.47310  0.47310  Biso   1.000  C
  C2       1.0000 0.47310  0.09270  0.96110  Biso   1.000  C
  C3       1.0000 0.47310  0.96110  0.09270  Biso   1.000  C
  C4       1.0000 0.96110  0.47310  0.47310  Biso   1.000  C
  C5       1.0000 0.09270  0.47310  0.96110  Biso   1.000  C
  C6       1.0000 0.47310  0.96110  0.47310  Biso   1.000  C
  C7       1.0000 0.47310  0.09270  0.47310  Biso   1.000  C
  C8       1.0000 0.96110  0.47310  0.09270  Biso   1.000  C
  C9       1.0000 0.09270  0.96110  0.47310  Biso   1.000  C
  C10      1.0000 0.47310  0.47310  0.09270  Biso   1.000  C
  C11      1.0000 0.47310  0.47310  0.96110  Biso   1.000  C
  C12      1.0000 0.96110  0.09270  0.47310  Biso   1.000  C
  C13      1.0000 0.52690  0.90730  0.52690  Biso   1.000  C
  C14      1.0000 0.90730  0.52690  0.03890  Biso   1.000  C
  C15      1.0000 0.03890  0.52690  0.90730  Biso   1.000  C
  C16      1.0000 0.52690  0.03890  0.52690  Biso   1.000  C
  C17      1.0000 0.52690  0.90730  0.03890  Biso   1.000  C
  C18      1.0000 0.03890  0.52690  0.52690  Biso   1.000  C
  C19      1.0000 0.90730  0.52690  0.52690  Biso   1.000  C
  C20      1.0000 0.52690  0.03890  0.90730  Biso   1.000  C
  C21      1.0000 0.03890  0.90730  0.52690  Biso   1.000  C
  C22      1.0000 0.52690  0.52690  0.90730  Biso   1.000  C
  C23      1.0000 0.52690  0.52690  0.03890  Biso   1.000  C
  C24      1.0000 0.90730  0.03890  0.52690  Biso   1.000  C
  C25      1.0000 0.11130  0.38870  0.38870  Biso   1.000  C
  C26      1.0000 0.05380  0.44620  0.44620  Biso   1.000  C
  C27      1.0000 0.38870  0.11130  0.11130  Biso   1.000  C
  C28      1.0000 0.44620  0.05380  0.05380  Biso   1.000  C
  C29      1.0000 0.11130  0.38870  0.11130  Biso   1.000  C
  C30      1.0000 0.05380  0.44620  0.05380  Biso   1.000  C
  C31      1.0000 0.38870  0.11130  0.38870  Biso   1.000  C
  C32      1.0000 0.44620  0.05380  0.44620  Biso   1.000  C
  C33      1.0000 0.11130  0.11130  0.38870  Biso   1.000  C
  C34      1.0000 0.05380  0.05380  0.44620  Biso   1.000  C
  C35      1.0000 0.38870  0.38870  0.11130  Biso   1.000  C
  C36      1.0000 0.44620  0.44620  0.05380  Biso   1.000  C
  C37      1.0000 0.61130  0.88870  0.61130  Biso   1.000  C
  C38      1.0000 0.55380  0.94620  0.55380  Biso   1.000  C
  C39      1.0000 0.88870  0.61130  0.88870  Biso   1.000  C
  C40      1.0000 0.94620  0.55380  0.94620  Biso   1.000  C
  C41      1.0000 0.61130  0.88870  0.88870  Biso   1.000  C
  C42      1.0000 0.55380  0.94620  0.94620  Biso   1.000  C
  C43      1.0000 0.88870  0.61130  0.61130  Biso   1.000  C
  C44      1.0000 0.94620  0.55380  0.55380  Biso   1.000  C
  C45      1.0000 0.88870  0.88870  0.61130  Biso   1.000  C
  C46      1.0000 0.94620  0.94620  0.55380  Biso   1.000  C
  C47      1.0000 0.61130  0.61130  0.88870  Biso   1.000  C
  C48      1.0000 0.55380  0.55380  0.94620  Biso   1.000  C
  O1       1.0000 0.25000  0.25000  0.25000  Biso   1.000  O
  O2       1.0000 0.75000  0.75000  0.75000  Biso   1.000  O
  O3       1.0000 0.19777  0.36600  0.36600  Biso   1.000  O
  O4       1.0000 0.36600  0.19777  0.07023  Biso   1.000  O
  O5       1.0000 0.36600  0.07023  0.19777  Biso   1.000  O
  O6       1.0000 0.07023  0.36600  0.36600  Biso   1.000  O
  O7       1.0000 0.19777  0.36600  0.07023  Biso   1.000  O
  O8       1.0000 0.36600  0.07023  0.36600  Biso   1.000  O
  O9       1.0000 0.36600  0.19777  0.36600  Biso   1.000  O
  O10      1.0000 0.07023  0.36600  0.19777  Biso   1.000  O
  O11      1.0000 0.19777  0.07023  0.36600  Biso   1.000  O
  O12      1.0000 0.36600  0.36600  0.19777  Biso   1.000  O
  O13      1.0000 0.36600  0.36600  0.07023  Biso   1.000  O
  O14      1.0000 0.07023  0.19777  0.36600  Biso   1.000  O
  O15      1.0000 0.63400  0.80223  0.63400  Biso   1.000  O
  O16      1.0000 0.80223  0.63400  0.92977  Biso   1.000  O
  O17      1.0000 0.92977  0.63400  0.80223  Biso   1.000  O
  O18      1.0000 0.63400  0.92977  0.63400  Biso   1.000  O
  O19      1.0000 0.63400  0.80223  0.92977  Biso   1.000  O
  O20      1.0000 0.92977  0.63400  0.63400  Biso   1.000  O
  O21      1.0000 0.80223  0.63400  0.63400  Biso   1.000  O
  O22      1.0000 0.63400  0.92977  0.80223  Biso   1.000  O
  O23      1.0000 0.92977  0.80223  0.63400  Biso   1.000  O
  O24      1.0000 0.63400  0.63400  0.80223  Biso   1.000  O
  O25      1.0000 0.63400  0.63400  0.92977  Biso   1.000  O
  O26      1.0000 0.80223  0.92977  0.63400  Biso   1.000  O
  Zn9      1.0000 0.00551  0.84032  0.13410  Biso   1.000  Zn
  Zn10     1.0000 0.00551  0.01790  0.13410  Biso   1.000  Zn
  Zn11     1.0000 0.82793  0.01790  0.13410  Biso   1.000  Zn
  Zn12     1.0000 0.00551  0.01790  0.95652  Biso   1.000  Zn
  Zn13     1.0000 0.41995  0.42803  0.54423  Biso   1.000  Zn
  Zn14     1.0000 0.41995  0.60562  0.54423  Biso   1.000  Zn
  Zn15     1.0000 0.59753  0.42803  0.54423  Biso   1.000  Zn
  Zn16     1.0000 0.41995  0.42803  0.72181  Biso   1.000  Zn
  H25      1.0000 0.85889  0.66084  0.29715  Biso   1.000  H
  H26      1.0000 0.16856  0.18095  0.98749  Biso   1.000  H
  H27      1.0000 0.64844  0.87129  0.29715  Biso   1.000  H
  H28      1.0000 0.16856  0.18095  0.77703  Biso   1.000  H
  H29      1.0000 0.64844  0.18095  0.98749  Biso   1.000  H
  H30      1.0000 0.16856  0.87129  0.29715  Biso   1.000  H
  H31      1.0000 0.85889  0.18095  0.77703  Biso   1.000  H
  H32      1.0000 0.16856  0.66084  0.29715  Biso   1.000  H
  H33      1.0000 0.16856  0.87129  0.77703  Biso   1.000  H
  H34      1.0000 0.85889  0.18095  0.29715  Biso   1.000  H
  H35      1.0000 0.16856  0.66084  0.98749  Biso   1.000  H
  H36      1.0000 0.64844  0.18095  0.29715  Biso   1.000  H
  H37      1.0000 0.56657  0.26498  0.38118  Biso   1.000  H
  H38      1.0000 0.25690  0.78510  0.69085  Biso   1.000  H
  H39      1.0000 0.77702  0.26498  0.38118  Biso   1.000  H
  H40      1.0000 0.25690  0.57465  0.90130  Biso   1.000  H
  H41      1.0000 0.77702  0.26498  0.69085  Biso   1.000  H
  H42      1.0000 0.25690  0.78510  0.38118  Biso   1.000  H
  H43      1.0000 0.56657  0.26498  0.90130  Biso   1.000  H
  H44      1.0000 0.25690  0.57465  0.38118  Biso   1.000  H
  H45      1.0000 0.25690  0.26498  0.90130  Biso   1.000  H
  H46      1.0000 0.56657  0.78510  0.38118  Biso   1.000  H
  H47      1.0000 0.25690  0.26498  0.69085  Biso   1.000  H
  H48      1.0000 0.77702  0.57465  0.38118  Biso   1.000  H
  C49      1.0000 0.80638  0.68368  0.31198  Biso   1.000  C
  C50      1.0000 0.18339  0.19579  0.93497  Biso   1.000  C
  C51      1.0000 0.67129  0.81878  0.31198  Biso   1.000  C
  C52      1.0000 0.18339  0.19579  0.79988  Biso   1.000  C
  C53      1.0000 0.67129  0.19579  0.93497  Biso   1.000  C
  C54      1.0000 0.18339  0.81878  0.31198  Biso   1.000  C
  C55      1.0000 0.80638  0.19579  0.79988  Biso   1.000  C
  C56      1.0000 0.18339  0.68368  0.31198  Biso   1.000  C
  C57      1.0000 0.18339  0.81878  0.79988  Biso   1.000  C
  C58      1.0000 0.80638  0.19579  0.31198  Biso   1.000  C
  C59      1.0000 0.18339  0.68368  0.93497  Biso   1.000  C
  C60      1.0000 0.67129  0.19579  0.31198  Biso   1.000  C
  C61      1.0000 0.61908  0.25015  0.36635  Biso   1.000  C
  C62      1.0000 0.24207  0.76225  0.74336  Biso   1.000  C
  C63      1.0000 0.75417  0.25015  0.36635  Biso   1.000  C
  C64      1.0000 0.24207  0.62716  0.87845  Biso   1.000  C
  C65      1.0000 0.75417  0.25015  0.74336  Biso   1.000  C
  C66      1.0000 0.24207  0.76225  0.36635  Biso   1.000  C
  C67      1.0000 0.61908  0.25015  0.87845  Biso   1.000  C
  C68      1.0000 0.24207  0.62716  0.36635  Biso   1.000  C
  C69      1.0000 0.24207  0.25015  0.87845  Biso   1.000  C
  C70      1.0000 0.61908  0.76225  0.36635  Biso   1.000  C
  C71      1.0000 0.24207  0.25015  0.74336  Biso   1.000  C
  C72      1.0000 0.75417  0.62716  0.36635  Biso   1.000  C
  C73      1.0000 0.82542  0.83782  0.22540  Biso   1.000  C
  C74      1.0000 0.76479  0.77719  0.28603  Biso   1.000  C
  C75      1.0000 0.09680  0.10920  0.95401  Biso   1.000  C
  C76      1.0000 0.15743  0.16983  0.89338  Biso   1.000  C
  C77      1.0000 0.82542  0.10920  0.95401  Biso   1.000  C
  C78      1.0000 0.76479  0.16983  0.89338  Biso   1.000  C
  C79      1.0000 0.09680  0.83782  0.22540  Biso   1.000  C
  C80      1.0000 0.15743  0.77719  0.28603  Biso   1.000  C
  C81      1.0000 0.09680  0.83782  0.95401  Biso   1.000  C
  C82      1.0000 0.15743  0.77719  0.89338  Biso   1.000  C
  C83      1.0000 0.82542  0.10920  0.22540  Biso   1.000  C
  C84      1.0000 0.76479  0.16983  0.28603  Biso   1.000  C
  C85      1.0000 0.60004  0.33674  0.45293  Biso   1.000  C
  C86      1.0000 0.66067  0.27611  0.39230  Biso   1.000  C
  C87      1.0000 0.32866  0.60812  0.72432  Biso   1.000  C
  C88      1.0000 0.26802  0.66875  0.78495  Biso   1.000  C
  C89      1.0000 0.60004  0.33674  0.72432  Biso   1.000  C
  C90      1.0000 0.66067  0.27611  0.78495  Biso   1.000  C
  C91      1.0000 0.32866  0.60812  0.45293  Biso   1.000  C
  C92      1.0000 0.26802  0.66875  0.39230  Biso   1.000  C
  C93      1.0000 0.32866  0.33674  0.72432  Biso   1.000  C
  C94      1.0000 0.26803  0.27611  0.78495  Biso   1.000  C
  C95      1.0000 0.60004  0.60812  0.45293  Biso   1.000  C
  C96      1.0000 0.66067  0.66875  0.39230  Biso   1.000  C
  O27      1.0000 0.96111  0.97351  0.08971  Biso   1.000  O
  O28      1.0000 0.46435  0.47243  0.58863  Biso   1.000  O
  O29      1.0000 0.90740  0.79392  0.20636  Biso   1.000  O
  O30      1.0000 0.07776  0.09016  0.03599  Biso   1.000  O
  O31      1.0000 0.78153  0.91979  0.20636  Biso   1.000  O
  O32      1.0000 0.07776  0.09016  0.91012  Biso   1.000  O
  O33      1.0000 0.78153  0.09016  0.03599  Biso   1.000  O
  O34      1.0000 0.07776  0.91979  0.20636  Biso   1.000  O
  O35      1.0000 0.90740  0.09016  0.91012  Biso   1.000  O
  O36      1.0000 0.07776  0.79392  0.20636  Biso   1.000  O
  O37      1.0000 0.07776  0.91979  0.91012  Biso   1.000  O
  O38      1.0000 0.90740  0.09016  0.20636  Biso   1.000  O
  O39      1.0000 0.07776  0.79392  0.03599  Biso   1.000  O
  O40      1.0000 0.78153  0.09016  0.20636  Biso   1.000  O
  O41      1.0000 0.51806  0.35578  0.47198  Biso   1.000  O
  O42      1.0000 0.34770  0.65202  0.64234  Biso   1.000  O
  O43      1.0000 0.64393  0.35578  0.47198  Biso   1.000  O
  O44      1.0000 0.34770  0.52615  0.76821  Biso   1.000  O
  O45      1.0000 0.64393  0.35578  0.64234  Biso   1.000  O
  O46      1.0000 0.34770  0.65202  0.47198  Biso   1.000  O
  O47      1.0000 0.51806  0.35578  0.76821  Biso   1.000  O
  O48      1.0000 0.34770  0.52615  0.47198  Biso   1.000  O
  O49      1.0000 0.34770  0.35578  0.76821  Biso   1.000  O
  O50      1.0000 0.51806  0.65202  0.47198  Biso   1.000  O
  O51      1.0000 0.34770  0.35578  0.64234  Biso   1.000  O
