data_image0
_cell_length_a       18.266
_cell_length_b       18.266
_cell_length_c       18.266
_cell_angle_alpha    60
_cell_angle_beta     60
_cell_angle_gamma    60

_symmetry_space_group_name_H-M    "P 1"
_symmetry_int_tables_number       1

loop_
  _symmetry_equiv_pos_as_xyz
  'x, y, z'

loop_
  _atom_site_label
  _atom_site_occupancy
  _atom_site_fract_x
  _atom_site_fract_y
  _atom_site_fract_z
  _atom_site_thermal_displace_type
  _atom_site_B_iso_or_equiv
  _atom_site_type_symbol
  C1       1.0000 0.29338  0.29338  0.29338  Biso   1.000  C
  C2       1.0000 0.29338  0.29338  0.11986  Biso   1.000  C
  C3       1.0000 0.29338  0.11986  0.29338  Biso   1.000  C
  C4       1.0000 0.11986  0.29338  0.29338  Biso   1.000  C
  C5       1.0000 0.70662  0.70662  0.70662  Biso   1.000  C
  C6       1.0000 0.70662  0.70662  0.88014  Biso   1.000  C
  C7       1.0000 0.88014  0.70662  0.70662  Biso   1.000  C
  C8       1.0000 0.70662  0.88014  0.70662  Biso   1.000  C
  C9       1.0000 0.15460  0.45520  0.45520  Biso   1.000  C
  C10      1.0000 0.45520  0.15460  0.93500  Biso   1.000  C
  C11      1.0000 0.45520  0.93500  0.15460  Biso   1.000  C
  C12      1.0000 0.93500  0.45520  0.45520  Biso   1.000  C
  C13      1.0000 0.15460  0.45520  0.93500  Biso   1.000  C
  C14      1.0000 0.45520  0.93500  0.45520  Biso   1.000  C
  C15      1.0000 0.45520  0.15460  0.45520  Biso   1.000  C
  C16      1.0000 0.93500  0.45520  0.15460  Biso   1.000  C
  C17      1.0000 0.15460  0.93500  0.45520  Biso   1.000  C
  C18      1.0000 0.45520  0.45520  0.15460  Biso   1.000  C
  C19      1.0000 0.45520  0.45520  0.93500  Biso   1.000  C
  C20      1.0000 0.93500  0.15460  0.45520  Biso   1.000  C
  C21      1.0000 0.54480  0.84540  0.54480  Biso   1.000  C
  C22      1.0000 0.84540  0.54480  0.06500  Biso   1.000  C
  C23      1.0000 0.06500  0.54480  0.84540  Biso   1.000  C
  C24      1.0000 0.54480  0.06500  0.54480  Biso   1.000  C
  C25      1.0000 0.54480  0.84540  0.06500  Biso   1.000  C
  C26      1.0000 0.06500  0.54480  0.54480  Biso   1.000  C
  C27      1.0000 0.84540  0.54480  0.54480  Biso   1.000  C
  C28      1.0000 0.54480  0.06500  0.84540  Biso   1.000  C
  C29      1.0000 0.06500  0.84540  0.54480  Biso   1.000  C
  C30      1.0000 0.54480  0.54480  0.84540  Biso   1.000  C
  C31      1.0000 0.54480  0.54480  0.06500  Biso   1.000  C
  C32      1.0000 0.84540  0.06500  0.54480  Biso   1.000  C
  C33      1.0000 0.09270  0.47310  0.47310  Biso   1.000  C
  C34      1.0000 0.47310  0.09270  0.96110  Biso   1.000  C
  C35      1.0000 0.47310  0.96110  0.09270  Biso   1.000  C
  C36      1.0000 0.96110  0.47310  0.47310  Biso   1.000  C
  C37      1.0000 0.09270  0.47310  0.96110  Biso   1.000  C
  C38      1.0000 0.47310  0.96110  0.47310  Biso   1.000  C
  C39      1.0000 0.47310  0.09270  0.47310  Biso   1.000  C
  C40      1.0000 0.96110  0.47310  0.09270  Biso   1.000  C
  C41      1.0000 0.09270  0.96110  0.47310  Biso   1.000  C
  C42      1.0000 0.47310  0.47310  0.09270  Biso   1.000  C
  C43      1.0000 0.47310  0.47310  0.96110  Biso   1.000  C
  C44      1.0000 0.96110  0.09270  0.47310  Biso   1.000  C
  C45      1.0000 0.52690  0.90730  0.52690  Biso   1.000  C
  C46      1.0000 0.90730  0.52690  0.03890  Biso   1.000  C
  C47      1.0000 0.03890  0.52690  0.90730  Biso   1.000  C
  C48      1.0000 0.52690  0.03890  0.52690  Biso   1.000  C
  C49      1.0000 0.52690  0.90730  0.03890  Biso   1.000  C
  C50      1.0000 0.03890  0.52690  0.52690  Biso   1.000  C
  C51      1.0000 0.90730  0.52690  0.52690  Biso   1.000  C
  C52      1.0000 0.52690  0.03890  0.90730  Biso   1.000  C
  C53      1.0000 0.03890  0.90730  0.52690  Biso   1.000  C
  C54      1.0000 0.52690  0.52690  0.90730  Biso   1.000  C
  C55      1.0000 0.52690  0.52690  0.03890  Biso   1.000  C
  C56      1.0000 0.90730  0.03890  0.52690  Biso   1.000  C
  C57      1.0000 0.11130  0.38870  0.38870  Biso   1.000  C
  C58      1.0000 0.05380  0.44620  0.44620  Biso   1.000  C
  C59      1.0000 0.38870  0.11130  0.11130  Biso   1.000  C
  C60      1.0000 0.44620  0.05380  0.05380  Biso   1.000  C
  C61      1.0000 0.11130  0.38870  0.11130  Biso   1.000  C
  C62      1.0000 0.05380  0.44620  0.05380  Biso   1.000  C
  C63      1.0000 0.38870  0.11130  0.38870  Biso   1.000  C
  C64      1.0000 0.44620  0.05380  0.44620  Biso   1.000  C
  C65      1.0000 0.11130  0.11130  0.38870  Biso   1.000  C
  C66      1.0000 0.05380  0.05380  0.44620  Biso   1.000  C
  C67      1.0000 0.38870  0.38870  0.11130  Biso   1.000  C
  C68      1.0000 0.44620  0.44620  0.05380  Biso   1.000  C
  C69      1.0000 0.61130  0.88870  0.61130  Biso   1.000  C
  C70      1.0000 0.55380  0.94620  0.55380  Biso   1.000  C
  C71      1.0000 0.88870  0.61130  0.88870  Biso   1.000  C
  C72      1.0000 0.94620  0.55380  0.94620  Biso   1.000  C
  C73      1.0000 0.61130  0.88870  0.88870  Biso   1.000  C
  C74      1.0000 0.55380  0.94620  0.94620  Biso   1.000  C
  C75      1.0000 0.88870  0.61130  0.61130  Biso   1.000  C
  C76      1.0000 0.94620  0.55380  0.55380  Biso   1.000  C
  C77      1.0000 0.88870  0.88870  0.61130  Biso   1.000  C
  C78      1.0000 0.94620  0.94620  0.55380  Biso   1.000  C
  C79      1.0000 0.61130  0.61130  0.88870  Biso   1.000  C
  C80      1.0000 0.55380  0.55380  0.94620  Biso   1.000  C
  C81      1.0000 0.25000  0.25000  0.25000  Biso   1.000  C
  C82      1.0000 0.75000  0.75000  0.75000  Biso   1.000  C
  C83      1.0000 0.19777  0.36600  0.36600  Biso   1.000  C
  C84      1.0000 0.36600  0.19777  0.07023  Biso   1.000  C
  C85      1.0000 0.36600  0.07023  0.19777  Biso   1.000  C
  C86      1.0000 0.07023  0.36600  0.36600  Biso   1.000  C
  C87      1.0000 0.19777  0.36600  0.07023  Biso   1.000  C
  C88      1.0000 0.36600  0.07023  0.36600  Biso   1.000  C
  C89      1.0000 0.36600  0.19777  0.36600  Biso   1.000  C
  C90      1.0000 0.07023  0.36600  0.19777  Biso   1.000  C
  C91      1.0000 0.19777  0.07023  0.36600  Biso   1.000  C
  C92      1.0000 0.36600  0.36600  0.19777  Biso   1.000  C
  C93      1.0000 0.36600  0.36600  0.07023  Biso   1.000  C
  C94      1.0000 0.07023  0.19777  0.36600  Biso   1.000  C
  C95      1.0000 0.63400  0.80223  0.63400  Biso   1.000  C
  C96      1.0000 0.80223  0.63400  0.92977  Biso   1.000  C
  C97      1.0000 0.92977  0.63400  0.80223  Biso   1.000  C
  C98      1.0000 0.63400  0.92977  0.63400  Biso   1.000  C
  C99      1.0000 0.63400  0.80223  0.92977  Biso   1.000  C
  C100     1.0000 0.92977  0.63400  0.63400  Biso   1.000  C
  C101     1.0000 0.80223  0.63400  0.63400  Biso   1.000  C
  C102     1.0000 0.63400  0.92977  0.80223  Biso   1.000  C
  C103     1.0000 0.92977  0.80223  0.63400  Biso   1.000  C
  C104     1.0000 0.63400  0.63400  0.80223  Biso   1.000  C
  C105     1.0000 0.63400  0.63400  0.92977  Biso   1.000  C
  C106     1.0000 0.80223  0.92977  0.63400  Biso   1.000  C
  O1       1.0000 0.50286  0.52041  0.33525  Biso   1.000  O
  O2       1.0000 0.50287  0.52040  0.50929  Biso   1.000  O
  O3       1.0000 0.32883  0.52041  0.50928  Biso   1.000  O
  O4       1.0000 0.50287  0.34637  0.50929  Biso   1.000  O
  O5       1.0000 0.91500  0.93252  0.09544  Biso   1.000  O
  O6       1.0000 0.91499  0.93252  0.92141  Biso   1.000  O
  O7       1.0000 0.91500  0.10655  0.92141  Biso   1.000  O
  O8       1.0000 0.08903  0.93252  0.92140  Biso   1.000  O
  O9       1.0000 0.66491  0.68244  0.15109  Biso   1.000  O
  O10      1.0000 0.66491  0.68244  0.36765  Biso   1.000  O
  O11      1.0000 0.14468  0.37876  0.67132  Biso   1.000  O
  O12      1.0000 0.36124  0.16221  0.67132  Biso   1.000  O
  O13      1.0000 0.66491  0.16221  0.36765  Biso   1.000  O
  O14      1.0000 0.66491  0.37876  0.15109  Biso   1.000  O
  O15      1.0000 0.14468  0.68244  0.67132  Biso   1.000  O
  O16      1.0000 0.36124  0.68244  0.67132  Biso   1.000  O
  O17      1.0000 0.66491  0.37876  0.67132  Biso   1.000  O
  O18      1.0000 0.66491  0.16221  0.67132  Biso   1.000  O
  O19      1.0000 0.14468  0.68244  0.36765  Biso   1.000  O
  O20      1.0000 0.36124  0.68244  0.15109  Biso   1.000  O
  O21      1.0000 0.75296  0.77048  0.27960  Biso   1.000  O
  O22      1.0000 0.75296  0.77048  0.06304  Biso   1.000  O
  O23      1.0000 0.05663  0.29072  0.75937  Biso   1.000  O
  O24      1.0000 0.27319  0.07416  0.75937  Biso   1.000  O
  O25      1.0000 0.27319  0.77048  0.06304  Biso   1.000  O
  O26      1.0000 0.05663  0.77048  0.27960  Biso   1.000  O
  O27      1.0000 0.75296  0.29072  0.75937  Biso   1.000  O
  O28      1.0000 0.75296  0.07416  0.75937  Biso   1.000  O
  O29      1.0000 0.05663  0.77048  0.75937  Biso   1.000  O
  O30      1.0000 0.27319  0.77048  0.75937  Biso   1.000  O
  O31      1.0000 0.75296  0.29072  0.06304  Biso   1.000  O
  O32      1.0000 0.75296  0.07416  0.27960  Biso   1.000  O
  O33      1.0000 0.68258  0.70011  0.17780  Biso   1.000  O
  O34      1.0000 0.68258  0.70011  0.30559  Biso   1.000  O
  O35      1.0000 0.17139  0.31671  0.68899  Biso   1.000  O
  O36      1.0000 0.29918  0.18892  0.68899  Biso   1.000  O
  O37      1.0000 0.68258  0.18892  0.30559  Biso   1.000  O
  O38      1.0000 0.68258  0.31671  0.17780  Biso   1.000  O
  O39      1.0000 0.17139  0.70011  0.68899  Biso   1.000  O
  O40      1.0000 0.29918  0.70011  0.68899  Biso   1.000  O
  O41      1.0000 0.68258  0.31671  0.68899  Biso   1.000  O
  O42      1.0000 0.68258  0.18892  0.68899  Biso   1.000  O
  O43      1.0000 0.17139  0.70011  0.30559  Biso   1.000  O
  O44      1.0000 0.29918  0.70011  0.17780  Biso   1.000  O
  O45      1.0000 0.73529  0.75281  0.25289  Biso   1.000  O
  O46      1.0000 0.73529  0.75281  0.12509  Biso   1.000  O
  O47      1.0000 0.11868  0.26400  0.74170  Biso   1.000  O
  O48      1.0000 0.24648  0.13621  0.74170  Biso   1.000  O
  O49      1.0000 0.24648  0.75281  0.12509  Biso   1.000  O
  O50      1.0000 0.11868  0.75281  0.25289  Biso   1.000  O
  O51      1.0000 0.73529  0.26400  0.74170  Biso   1.000  O
  O52      1.0000 0.73529  0.13621  0.74170  Biso   1.000  O
  O53      1.0000 0.11868  0.75281  0.74170  Biso   1.000  O
  O54      1.0000 0.24648  0.75281  0.74170  Biso   1.000  O
  O55      1.0000 0.73529  0.26400  0.12509  Biso   1.000  O
  O56      1.0000 0.73529  0.13621  0.25289  Biso   1.000  O
  O57      1.0000 0.59773  0.61525  0.32742  Biso   1.000  O
  O58      1.0000 0.65543  0.67295  0.26972  Biso   1.000  O
  O59      1.0000 0.32101  0.33853  0.60414  Biso   1.000  O
  O60      1.0000 0.26331  0.28083  0.66184  Biso   1.000  O
  O61      1.0000 0.59773  0.33853  0.32742  Biso   1.000  O
  O62      1.0000 0.65543  0.28083  0.26972  Biso   1.000  O
  O63      1.0000 0.32101  0.61525  0.60414  Biso   1.000  O
  O64      1.0000 0.26331  0.67295  0.66184  Biso   1.000  O
  O65      1.0000 0.59773  0.33853  0.60414  Biso   1.000  O
  O66      1.0000 0.65543  0.28083  0.66184  Biso   1.000  O
  O67      1.0000 0.32101  0.61525  0.32742  Biso   1.000  O
  O68      1.0000 0.26331  0.67295  0.26972  Biso   1.000  O
  O69      1.0000 0.82014  0.83767  0.10327  Biso   1.000  O
  O70      1.0000 0.76244  0.77997  0.16097  Biso   1.000  O
  O71      1.0000 0.09686  0.11439  0.82655  Biso   1.000  O
  O72      1.0000 0.15456  0.17209  0.76885  Biso   1.000  O
  O73      1.0000 0.09686  0.83767  0.10327  Biso   1.000  O
  O74      1.0000 0.15456  0.77997  0.16097  Biso   1.000  O
  O75      1.0000 0.82014  0.11439  0.82655  Biso   1.000  O
  O76      1.0000 0.76244  0.17209  0.76885  Biso   1.000  O
  O77      1.0000 0.09686  0.83767  0.82655  Biso   1.000  O
  O78      1.0000 0.15456  0.77997  0.76885  Biso   1.000  O
  O79      1.0000 0.82014  0.11439  0.10327  Biso   1.000  O
  O80      1.0000 0.76244  0.17209  0.16097  Biso   1.000  O
  O81      1.0000 0.45937  0.47689  0.46578  Biso   1.000  O
  O82      1.0000 0.95850  0.97603  0.96491  Biso   1.000  O
  O83      1.0000 0.57521  0.59273  0.28948  Biso   1.000  O
  O84      1.0000 0.57521  0.59273  0.41039  Biso   1.000  O
  O85      1.0000 0.28307  0.42151  0.58162  Biso   1.000  O
  O86      1.0000 0.40398  0.30060  0.58162  Biso   1.000  O
  O87      1.0000 0.57521  0.30060  0.41039  Biso   1.000  O
  O88      1.0000 0.57521  0.42151  0.28948  Biso   1.000  O
  O89      1.0000 0.28307  0.59273  0.58162  Biso   1.000  O
  O90      1.0000 0.40398  0.59273  0.58162  Biso   1.000  O
  O91      1.0000 0.57521  0.42151  0.58162  Biso   1.000  O
  O92      1.0000 0.57521  0.30060  0.58162  Biso   1.000  O
  O93      1.0000 0.28307  0.59273  0.41039  Biso   1.000  O
  O94      1.0000 0.40398  0.59273  0.28948  Biso   1.000  O
  O95      1.0000 0.84266  0.86019  0.14121  Biso   1.000  O
  O96      1.0000 0.84266  0.86019  0.02030  Biso   1.000  O
  O97      1.0000 0.01389  0.15232  0.84907  Biso   1.000  O
  O98      1.0000 0.13480  0.03141  0.84907  Biso   1.000  O
  O99      1.0000 0.13480  0.86019  0.02030  Biso   1.000  O
  O100     1.0000 0.01389  0.86019  0.14121  Biso   1.000  O
  O101     1.0000 0.84266  0.15232  0.84907  Biso   1.000  O
  O102     1.0000 0.84266  0.03141  0.84907  Biso   1.000  O
  O103     1.0000 0.01389  0.86019  0.84907  Biso   1.000  O
  O104     1.0000 0.13480  0.86019  0.84907  Biso   1.000  O
  O105     1.0000 0.84266  0.15232  0.02030  Biso   1.000  O
