data_image0
_cell_length_a       18.266
_cell_length_b       18.266
_cell_length_c       18.266
_cell_angle_alpha    60
_cell_angle_beta     60
_cell_angle_gamma    60

_symmetry_space_group_name_H-M    "P 1"
_symmetry_int_tables_number       1

loop_
  _symmetry_equiv_pos_as_xyz
  'x, y, z'

loop_
  _atom_site_label
  _atom_site_occupancy
  _atom_site_fract_x
  _atom_site_fract_y
  _atom_site_fract_z
  _atom_site_thermal_displace_type
  _atom_site_B_iso_or_equiv
  _atom_site_type_symbol
  C1       1.0000 0.29338  0.29338  0.29338  Biso   1.000  C
  C2       1.0000 0.29338  0.29338  0.11986  Biso   1.000  C
  C3       1.0000 0.29338  0.11986  0.29338  Biso   1.000  C
  C4       1.0000 0.11986  0.29338  0.29338  Biso   1.000  C
  C5       1.0000 0.70662  0.70662  0.70662  Biso   1.000  C
  C6       1.0000 0.70662  0.70662  0.88014  Biso   1.000  C
  C7       1.0000 0.88014  0.70662  0.70662  Biso   1.000  C
  C8       1.0000 0.70662  0.88014  0.70662  Biso   1.000  C
  C9       1.0000 0.15460  0.45520  0.45520  Biso   1.000  C
  C10      1.0000 0.45520  0.15460  0.93500  Biso   1.000  C
  C11      1.0000 0.45520  0.93500  0.15460  Biso   1.000  C
  C12      1.0000 0.93500  0.45520  0.45520  Biso   1.000  C
  C13      1.0000 0.15460  0.45520  0.93500  Biso   1.000  C
  C14      1.0000 0.45520  0.93500  0.45520  Biso   1.000  C
  C15      1.0000 0.45520  0.15460  0.45520  Biso   1.000  C
  C16      1.0000 0.93500  0.45520  0.15460  Biso   1.000  C
  C17      1.0000 0.15460  0.93500  0.45520  Biso   1.000  C
  C18      1.0000 0.45520  0.45520  0.15460  Biso   1.000  C
  C19      1.0000 0.45520  0.45520  0.93500  Biso   1.000  C
  C20      1.0000 0.93500  0.15460  0.45520  Biso   1.000  C
  C21      1.0000 0.54480  0.84540  0.54480  Biso   1.000  C
  C22      1.0000 0.84540  0.54480  0.06500  Biso   1.000  C
  C23      1.0000 0.06500  0.54480  0.84540  Biso   1.000  C
  C24      1.0000 0.54480  0.06500  0.54480  Biso   1.000  C
  C25      1.0000 0.54480  0.84540  0.06500  Biso   1.000  C
  C26      1.0000 0.06500  0.54480  0.54480  Biso   1.000  C
  C27      1.0000 0.84540  0.54480  0.54480  Biso   1.000  C
  C28      1.0000 0.54480  0.06500  0.84540  Biso   1.000  C
  C29      1.0000 0.06500  0.84540  0.54480  Biso   1.000  C
  C30      1.0000 0.54480  0.54480  0.84540  Biso   1.000  C
  C31      1.0000 0.54480  0.54480  0.06500  Biso   1.000  C
  C32      1.0000 0.84540  0.06500  0.54480  Biso   1.000  C
  C33      1.0000 0.09270  0.47310  0.47310  Biso   1.000  C
  C34      1.0000 0.47310  0.09270  0.96110  Biso   1.000  C
  C35      1.0000 0.47310  0.96110  0.09270  Biso   1.000  C
  C36      1.0000 0.96110  0.47310  0.47310  Biso   1.000  C
  C37      1.0000 0.09270  0.47310  0.96110  Biso   1.000  C
  C38      1.0000 0.47310  0.96110  0.47310  Biso   1.000  C
  C39      1.0000 0.47310  0.09270  0.47310  Biso   1.000  C
  C40      1.0000 0.96110  0.47310  0.09270  Biso   1.000  C
  C41      1.0000 0.09270  0.96110  0.47310  Biso   1.000  C
  C42      1.0000 0.47310  0.47310  0.09270  Biso   1.000  C
  C43      1.0000 0.47310  0.47310  0.96110  Biso   1.000  C
  C44      1.0000 0.96110  0.09270  0.47310  Biso   1.000  C
  C45      1.0000 0.52690  0.90730  0.52690  Biso   1.000  C
  C46      1.0000 0.90730  0.52690  0.03890  Biso   1.000  C
  C47      1.0000 0.03890  0.52690  0.90730  Biso   1.000  C
  C48      1.0000 0.52690  0.03890  0.52690  Biso   1.000  C
  C49      1.0000 0.52690  0.90730  0.03890  Biso   1.000  C
  C50      1.0000 0.03890  0.52690  0.52690  Biso   1.000  C
  C51      1.0000 0.90730  0.52690  0.52690  Biso   1.000  C
  C52      1.0000 0.52690  0.03890  0.90730  Biso   1.000  C
  C53      1.0000 0.03890  0.90730  0.52690  Biso   1.000  C
  C54      1.0000 0.52690  0.52690  0.90730  Biso   1.000  C
  C55      1.0000 0.52690  0.52690  0.03890  Biso   1.000  C
  C56      1.0000 0.90730  0.03890  0.52690  Biso   1.000  C
  C57      1.0000 0.11130  0.38870  0.38870  Biso   1.000  C
  C58      1.0000 0.05380  0.44620  0.44620  Biso   1.000  C
  C59      1.0000 0.38870  0.11130  0.11130  Biso   1.000  C
  C60      1.0000 0.44620  0.05380  0.05380  Biso   1.000  C
  C61      1.0000 0.11130  0.38870  0.11130  Biso   1.000  C
  C62      1.0000 0.05380  0.44620  0.05380  Biso   1.000  C
  C63      1.0000 0.38870  0.11130  0.38870  Biso   1.000  C
  C64      1.0000 0.44620  0.05380  0.44620  Biso   1.000  C
  C65      1.0000 0.11130  0.11130  0.38870  Biso   1.000  C
  C66      1.0000 0.05380  0.05380  0.44620  Biso   1.000  C
  C67      1.0000 0.38870  0.38870  0.11130  Biso   1.000  C
  C68      1.0000 0.44620  0.44620  0.05380  Biso   1.000  C
  C69      1.0000 0.61130  0.88870  0.61130  Biso   1.000  C
  C70      1.0000 0.55380  0.94620  0.55380  Biso   1.000  C
  C71      1.0000 0.88870  0.61130  0.88870  Biso   1.000  C
  C72      1.0000 0.94620  0.55380  0.94620  Biso   1.000  C
  C73      1.0000 0.61130  0.88870  0.88870  Biso   1.000  C
  C74      1.0000 0.55380  0.94620  0.94620  Biso   1.000  C
  C75      1.0000 0.88870  0.61130  0.61130  Biso   1.000  C
  C76      1.0000 0.94620  0.55380  0.55380  Biso   1.000  C
  C77      1.0000 0.88870  0.88870  0.61130  Biso   1.000  C
  C78      1.0000 0.94620  0.94620  0.55380  Biso   1.000  C
  C79      1.0000 0.61130  0.61130  0.88870  Biso   1.000  C
  C80      1.0000 0.55380  0.55380  0.94620  Biso   1.000  C
  C81      1.0000 0.25000  0.25000  0.25000  Biso   1.000  C
  C82      1.0000 0.75000  0.75000  0.75000  Biso   1.000  C
  C83      1.0000 0.19777  0.36600  0.36600  Biso   1.000  C
  C84      1.0000 0.36600  0.19777  0.07023  Biso   1.000  C
  C85      1.0000 0.36600  0.07023  0.19777  Biso   1.000  C
  C86      1.0000 0.07023  0.36600  0.36600  Biso   1.000  C
  C87      1.0000 0.19777  0.36600  0.07023  Biso   1.000  C
  C88      1.0000 0.36600  0.07023  0.36600  Biso   1.000  C
  C89      1.0000 0.36600  0.19777  0.36600  Biso   1.000  C
  C90      1.0000 0.07023  0.36600  0.19777  Biso   1.000  C
  C91      1.0000 0.19777  0.07023  0.36600  Biso   1.000  C
  C92      1.0000 0.36600  0.36600  0.19777  Biso   1.000  C
  C93      1.0000 0.36600  0.36600  0.07023  Biso   1.000  C
  C94      1.0000 0.07023  0.19777  0.36600  Biso   1.000  C
  C95      1.0000 0.63400  0.80223  0.63400  Biso   1.000  C
  C96      1.0000 0.80223  0.63400  0.92977  Biso   1.000  C
  C97      1.0000 0.92977  0.63400  0.80223  Biso   1.000  C
  C98      1.0000 0.63400  0.92977  0.63400  Biso   1.000  C
  C99      1.0000 0.63400  0.80223  0.92977  Biso   1.000  C
  C100     1.0000 0.92977  0.63400  0.63400  Biso   1.000  C
  C101     1.0000 0.80223  0.63400  0.63400  Biso   1.000  C
  C102     1.0000 0.63400  0.92977  0.80223  Biso   1.000  C
  C103     1.0000 0.92977  0.80223  0.63400  Biso   1.000  C
  C104     1.0000 0.63400  0.63400  0.80223  Biso   1.000  C
  C105     1.0000 0.63400  0.63400  0.92977  Biso   1.000  C
  C106     1.0000 0.80223  0.92977  0.63400  Biso   1.000  C
  O1       1.0000 0.50286  0.52041  0.33525  Biso   1.000  O
  O2       1.0000 0.50286  0.52041  0.50924  Biso   1.000  O
  O3       1.0000 0.32888  0.52041  0.50924  Biso   1.000  O
  O4       1.0000 0.50286  0.34642  0.50924  Biso   1.000  O
  O5       1.0000 0.91520  0.93277  0.09558  Biso   1.000  O
  O6       1.0000 0.91520  0.93277  0.92160  Biso   1.000  O
  O7       1.0000 0.91520  0.10675  0.92160  Biso   1.000  O
  O8       1.0000 0.08919  0.93277  0.92160  Biso   1.000  O
  O9       1.0000 0.66519  0.68275  0.15075  Biso   1.000  O
  O10      1.0000 0.66519  0.68275  0.36777  Biso   1.000  O
  O11      1.0000 0.14436  0.37894  0.67157  Biso   1.000  O
  O12      1.0000 0.36139  0.16192  0.67157  Biso   1.000  O
  O13      1.0000 0.66519  0.16192  0.36777  Biso   1.000  O
  O14      1.0000 0.66519  0.37894  0.15075  Biso   1.000  O
  O15      1.0000 0.14436  0.68275  0.67157  Biso   1.000  O
  O16      1.0000 0.36139  0.68275  0.67157  Biso   1.000  O
  O17      1.0000 0.66519  0.37894  0.67157  Biso   1.000  O
  O18      1.0000 0.66519  0.16192  0.67157  Biso   1.000  O
  O19      1.0000 0.14436  0.68275  0.36777  Biso   1.000  O
  O20      1.0000 0.36139  0.68275  0.15075  Biso   1.000  O
  O21      1.0000 0.75287  0.77043  0.28008  Biso   1.000  O
  O22      1.0000 0.75287  0.77043  0.06306  Biso   1.000  O
  O23      1.0000 0.05668  0.29126  0.75926  Biso   1.000  O
  O24      1.0000 0.27370  0.07423  0.75926  Biso   1.000  O
  O25      1.0000 0.27370  0.77043  0.06306  Biso   1.000  O
  O26      1.0000 0.05668  0.77043  0.28008  Biso   1.000  O
  O27      1.0000 0.75287  0.29126  0.75926  Biso   1.000  O
  O28      1.0000 0.75287  0.07423  0.75926  Biso   1.000  O
  O29      1.0000 0.05668  0.77043  0.75926  Biso   1.000  O
  O30      1.0000 0.27370  0.77043  0.75926  Biso   1.000  O
  O31      1.0000 0.75287  0.29126  0.06306  Biso   1.000  O
  O32      1.0000 0.75287  0.07423  0.28008  Biso   1.000  O
  O33      1.0000 0.68276  0.70031  0.17766  Biso   1.000  O
  O34      1.0000 0.68276  0.70031  0.30572  Biso   1.000  O
  O35      1.0000 0.17128  0.31689  0.68914  Biso   1.000  O
  O36      1.0000 0.29934  0.18884  0.68914  Biso   1.000  O
  O37      1.0000 0.68276  0.18884  0.30572  Biso   1.000  O
  O38      1.0000 0.68276  0.31689  0.17766  Biso   1.000  O
  O39      1.0000 0.17128  0.70031  0.68914  Biso   1.000  O
  O40      1.0000 0.29934  0.70031  0.68914  Biso   1.000  O
  O41      1.0000 0.68276  0.31689  0.68914  Biso   1.000  O
  O42      1.0000 0.68276  0.18884  0.68914  Biso   1.000  O
  O43      1.0000 0.17128  0.70031  0.30572  Biso   1.000  O
  O44      1.0000 0.29934  0.70031  0.17766  Biso   1.000  O
  O45      1.0000 0.73531  0.75286  0.25317  Biso   1.000  O
  O46      1.0000 0.73531  0.75286  0.12511  Biso   1.000  O
  O47      1.0000 0.11873  0.26434  0.74169  Biso   1.000  O
  O48      1.0000 0.24678  0.13628  0.74169  Biso   1.000  O
  O49      1.0000 0.24678  0.75286  0.12511  Biso   1.000  O
  O50      1.0000 0.11873  0.75286  0.25317  Biso   1.000  O
  O51      1.0000 0.73531  0.26434  0.74169  Biso   1.000  O
  O52      1.0000 0.73531  0.13628  0.74169  Biso   1.000  O
  O53      1.0000 0.11873  0.75286  0.74169  Biso   1.000  O
  O54      1.0000 0.24678  0.75286  0.74169  Biso   1.000  O
  O55      1.0000 0.73531  0.26434  0.12511  Biso   1.000  O
  O56      1.0000 0.73531  0.13628  0.25317  Biso   1.000  O
  O57      1.0000 0.59788  0.61543  0.32722  Biso   1.000  O
  O58      1.0000 0.65520  0.67276  0.26990  Biso   1.000  O
  O59      1.0000 0.32084  0.33839  0.60426  Biso   1.000  O
  O60      1.0000 0.26351  0.28107  0.66159  Biso   1.000  O
  O61      1.0000 0.59788  0.33839  0.32722  Biso   1.000  O
  O62      1.0000 0.65520  0.28107  0.26990  Biso   1.000  O
  O63      1.0000 0.32084  0.61543  0.60426  Biso   1.000  O
  O64      1.0000 0.26351  0.67276  0.66159  Biso   1.000  O
  O65      1.0000 0.59788  0.33839  0.60426  Biso   1.000  O
  O66      1.0000 0.65520  0.28107  0.66159  Biso   1.000  O
  O67      1.0000 0.32084  0.61543  0.32722  Biso   1.000  O
  O68      1.0000 0.26351  0.67276  0.26990  Biso   1.000  O
  O69      1.0000 0.82019  0.83774  0.10361  Biso   1.000  O
  O70      1.0000 0.76286  0.78042  0.16094  Biso   1.000  O
  O71      1.0000 0.09723  0.11478  0.82657  Biso   1.000  O
  O72      1.0000 0.15455  0.17211  0.76925  Biso   1.000  O
  O73      1.0000 0.09723  0.83774  0.10361  Biso   1.000  O
  O74      1.0000 0.15455  0.78042  0.16094  Biso   1.000  O
  O75      1.0000 0.82019  0.11478  0.82657  Biso   1.000  O
  O76      1.0000 0.76286  0.17211  0.76925  Biso   1.000  O
  O77      1.0000 0.09723  0.83774  0.82657  Biso   1.000  O
  O78      1.0000 0.15455  0.78042  0.76925  Biso   1.000  O
  O79      1.0000 0.82019  0.11478  0.10361  Biso   1.000  O
  O80      1.0000 0.76286  0.17211  0.16094  Biso   1.000  O
  O81      1.0000 0.45936  0.47691  0.46574  Biso   1.000  O
  O82      1.0000 0.95871  0.97626  0.96509  Biso   1.000  O
  O83      1.0000 0.57530  0.59285  0.28920  Biso   1.000  O
  O84      1.0000 0.57530  0.59285  0.41040  Biso   1.000  O
  O85      1.0000 0.28282  0.42158  0.58168  Biso   1.000  O
  O86      1.0000 0.40402  0.30037  0.58168  Biso   1.000  O
  O87      1.0000 0.57530  0.30037  0.41040  Biso   1.000  O
  O88      1.0000 0.57530  0.42158  0.28920  Biso   1.000  O
  O89      1.0000 0.28282  0.59285  0.58168  Biso   1.000  O
  O90      1.0000 0.40402  0.59285  0.58168  Biso   1.000  O
  O91      1.0000 0.57530  0.42158  0.58168  Biso   1.000  O
  O92      1.0000 0.57530  0.30037  0.58168  Biso   1.000  O
  O93      1.0000 0.28282  0.59285  0.41040  Biso   1.000  O
  O94      1.0000 0.40402  0.59285  0.28920  Biso   1.000  O
  O95      1.0000 0.84277  0.86032  0.14163  Biso   1.000  O
  O96      1.0000 0.84277  0.86032  0.02043  Biso   1.000  O
  O97      1.0000 0.01404  0.15280  0.84915  Biso   1.000  O
  O98      1.0000 0.13525  0.03160  0.84915  Biso   1.000  O
  O99      1.0000 0.13525  0.86032  0.02043  Biso   1.000  O
  O100     1.0000 0.01404  0.86032  0.14163  Biso   1.000  O
  O101     1.0000 0.84277  0.15280  0.84915  Biso   1.000  O
  O102     1.0000 0.84277  0.03160  0.84915  Biso   1.000  O
  O103     1.0000 0.01404  0.86032  0.84915  Biso   1.000  O
  O104     1.0000 0.13525  0.86032  0.84915  Biso   1.000  O
  O105     1.0000 0.84277  0.15280  0.02043  Biso   1.000  O
