data_image0
_cell_length_a       18.266
_cell_length_b       18.266
_cell_length_c       18.266
_cell_angle_alpha    60
_cell_angle_beta     60
_cell_angle_gamma    60

_symmetry_space_group_name_H-M    "P 1"
_symmetry_int_tables_number       1

loop_
  _symmetry_equiv_pos_as_xyz
  'x, y, z'

loop_
  _atom_site_label
  _atom_site_occupancy
  _atom_site_fract_x
  _atom_site_fract_y
  _atom_site_fract_z
  _atom_site_thermal_displace_type
  _atom_site_B_iso_or_equiv
  _atom_site_type_symbol
  C1       1.0000 0.29338  0.29338  0.29338  Biso   1.000  C
  C2       1.0000 0.29338  0.29338  0.11986  Biso   1.000  C
  C3       1.0000 0.29338  0.11986  0.29338  Biso   1.000  C
  C4       1.0000 0.11986  0.29338  0.29338  Biso   1.000  C
  C5       1.0000 0.70662  0.70662  0.70662  Biso   1.000  C
  C6       1.0000 0.70662  0.70662  0.88014  Biso   1.000  C
  C7       1.0000 0.88014  0.70662  0.70662  Biso   1.000  C
  C8       1.0000 0.70662  0.88014  0.70662  Biso   1.000  C
  C9       1.0000 0.15460  0.45520  0.45520  Biso   1.000  C
  C10      1.0000 0.45520  0.15460  0.93500  Biso   1.000  C
  C11      1.0000 0.45520  0.93500  0.15460  Biso   1.000  C
  C12      1.0000 0.93500  0.45520  0.45520  Biso   1.000  C
  C13      1.0000 0.15460  0.45520  0.93500  Biso   1.000  C
  C14      1.0000 0.45520  0.93500  0.45520  Biso   1.000  C
  C15      1.0000 0.45520  0.15460  0.45520  Biso   1.000  C
  C16      1.0000 0.93500  0.45520  0.15460  Biso   1.000  C
  C17      1.0000 0.15460  0.93500  0.45520  Biso   1.000  C
  C18      1.0000 0.45520  0.45520  0.15460  Biso   1.000  C
  C19      1.0000 0.45520  0.45520  0.93500  Biso   1.000  C
  C20      1.0000 0.93500  0.15460  0.45520  Biso   1.000  C
  C21      1.0000 0.54480  0.84540  0.54480  Biso   1.000  C
  C22      1.0000 0.84540  0.54480  0.06500  Biso   1.000  C
  C23      1.0000 0.06500  0.54480  0.84540  Biso   1.000  C
  C24      1.0000 0.54480  0.06500  0.54480  Biso   1.000  C
  C25      1.0000 0.54480  0.84540  0.06500  Biso   1.000  C
  C26      1.0000 0.06500  0.54480  0.54480  Biso   1.000  C
  C27      1.0000 0.84540  0.54480  0.54480  Biso   1.000  C
  C28      1.0000 0.54480  0.06500  0.84540  Biso   1.000  C
  C29      1.0000 0.06500  0.84540  0.54480  Biso   1.000  C
  C30      1.0000 0.54480  0.54480  0.84540  Biso   1.000  C
  C31      1.0000 0.54480  0.54480  0.06500  Biso   1.000  C
  C32      1.0000 0.84540  0.06500  0.54480  Biso   1.000  C
  C33      1.0000 0.09270  0.47310  0.47310  Biso   1.000  C
  C34      1.0000 0.47310  0.09270  0.96110  Biso   1.000  C
  C35      1.0000 0.47310  0.96110  0.09270  Biso   1.000  C
  C36      1.0000 0.96110  0.47310  0.47310  Biso   1.000  C
  C37      1.0000 0.09270  0.47310  0.96110  Biso   1.000  C
  C38      1.0000 0.47310  0.96110  0.47310  Biso   1.000  C
  C39      1.0000 0.47310  0.09270  0.47310  Biso   1.000  C
  C40      1.0000 0.96110  0.47310  0.09270  Biso   1.000  C
  C41      1.0000 0.09270  0.96110  0.47310  Biso   1.000  C
  C42      1.0000 0.47310  0.47310  0.09270  Biso   1.000  C
  C43      1.0000 0.47310  0.47310  0.96110  Biso   1.000  C
  C44      1.0000 0.96110  0.09270  0.47310  Biso   1.000  C
  C45      1.0000 0.52690  0.90730  0.52690  Biso   1.000  C
  C46      1.0000 0.90730  0.52690  0.03890  Biso   1.000  C
  C47      1.0000 0.03890  0.52690  0.90730  Biso   1.000  C
  C48      1.0000 0.52690  0.03890  0.52690  Biso   1.000  C
  C49      1.0000 0.52690  0.90730  0.03890  Biso   1.000  C
  C50      1.0000 0.03890  0.52690  0.52690  Biso   1.000  C
  C51      1.0000 0.90730  0.52690  0.52690  Biso   1.000  C
  C52      1.0000 0.52690  0.03890  0.90730  Biso   1.000  C
  C53      1.0000 0.03890  0.90730  0.52690  Biso   1.000  C
  C54      1.0000 0.52690  0.52690  0.90730  Biso   1.000  C
  C55      1.0000 0.52690  0.52690  0.03890  Biso   1.000  C
  C56      1.0000 0.90730  0.03890  0.52690  Biso   1.000  C
  C57      1.0000 0.11130  0.38870  0.38870  Biso   1.000  C
  C58      1.0000 0.05380  0.44620  0.44620  Biso   1.000  C
  C59      1.0000 0.38870  0.11130  0.11130  Biso   1.000  C
  C60      1.0000 0.44620  0.05380  0.05380  Biso   1.000  C
  C61      1.0000 0.11130  0.38870  0.11130  Biso   1.000  C
  C62      1.0000 0.05380  0.44620  0.05380  Biso   1.000  C
  C63      1.0000 0.38870  0.11130  0.38870  Biso   1.000  C
  C64      1.0000 0.44620  0.05380  0.44620  Biso   1.000  C
  C65      1.0000 0.11130  0.11130  0.38870  Biso   1.000  C
  C66      1.0000 0.05380  0.05380  0.44620  Biso   1.000  C
  C67      1.0000 0.38870  0.38870  0.11130  Biso   1.000  C
  C68      1.0000 0.44620  0.44620  0.05380  Biso   1.000  C
  C69      1.0000 0.61130  0.88870  0.61130  Biso   1.000  C
  C70      1.0000 0.55380  0.94620  0.55380  Biso   1.000  C
  C71      1.0000 0.88870  0.61130  0.88870  Biso   1.000  C
  C72      1.0000 0.94620  0.55380  0.94620  Biso   1.000  C
  C73      1.0000 0.61130  0.88870  0.88870  Biso   1.000  C
  C74      1.0000 0.55380  0.94620  0.94620  Biso   1.000  C
  C75      1.0000 0.88870  0.61130  0.61130  Biso   1.000  C
  C76      1.0000 0.94620  0.55380  0.55380  Biso   1.000  C
  C77      1.0000 0.88870  0.88870  0.61130  Biso   1.000  C
  C78      1.0000 0.94620  0.94620  0.55380  Biso   1.000  C
  C79      1.0000 0.61130  0.61130  0.88870  Biso   1.000  C
  C80      1.0000 0.55380  0.55380  0.94620  Biso   1.000  C
  C81      1.0000 0.25000  0.25000  0.25000  Biso   1.000  C
  C82      1.0000 0.75000  0.75000  0.75000  Biso   1.000  C
  C83      1.0000 0.19777  0.36600  0.36600  Biso   1.000  C
  C84      1.0000 0.36600  0.19777  0.07023  Biso   1.000  C
  C85      1.0000 0.36600  0.07023  0.19777  Biso   1.000  C
  C86      1.0000 0.07023  0.36600  0.36600  Biso   1.000  C
  C87      1.0000 0.19777  0.36600  0.07023  Biso   1.000  C
  C88      1.0000 0.36600  0.07023  0.36600  Biso   1.000  C
  C89      1.0000 0.36600  0.19777  0.36600  Biso   1.000  C
  C90      1.0000 0.07023  0.36600  0.19777  Biso   1.000  C
  C91      1.0000 0.19777  0.07023  0.36600  Biso   1.000  C
  C92      1.0000 0.36600  0.36600  0.19777  Biso   1.000  C
  C93      1.0000 0.36600  0.36600  0.07023  Biso   1.000  C
  C94      1.0000 0.07023  0.19777  0.36600  Biso   1.000  C
  C95      1.0000 0.63400  0.80223  0.63400  Biso   1.000  C
  C96      1.0000 0.80223  0.63400  0.92977  Biso   1.000  C
  C97      1.0000 0.92977  0.63400  0.80223  Biso   1.000  C
  C98      1.0000 0.63400  0.92977  0.63400  Biso   1.000  C
  C99      1.0000 0.63400  0.80223  0.92977  Biso   1.000  C
  C100     1.0000 0.92977  0.63400  0.63400  Biso   1.000  C
  C101     1.0000 0.80223  0.63400  0.63400  Biso   1.000  C
  C102     1.0000 0.63400  0.92977  0.80223  Biso   1.000  C
  C103     1.0000 0.92977  0.80223  0.63400  Biso   1.000  C
  C104     1.0000 0.63400  0.63400  0.80223  Biso   1.000  C
  C105     1.0000 0.63400  0.63400  0.92977  Biso   1.000  C
  C106     1.0000 0.80223  0.92977  0.63400  Biso   1.000  C
  O1       1.0000 0.50286  0.52041  0.33525  Biso   1.000  O
  O2       1.0000 0.50286  0.52041  0.50931  Biso   1.000  O
  O3       1.0000 0.32880  0.52041  0.50931  Biso   1.000  O
  O4       1.0000 0.50286  0.34635  0.50931  Biso   1.000  O
  O5       1.0000 0.91640  0.93392  0.09689  Biso   1.000  O
  O6       1.0000 0.91640  0.93392  0.92283  Biso   1.000  O
  O7       1.0000 0.91640  0.10798  0.92283  Biso   1.000  O
  O8       1.0000 0.09046  0.93392  0.92283  Biso   1.000  O
  O9       1.0000 0.66458  0.68212  0.15175  Biso   1.000  O
  O10      1.0000 0.66458  0.68212  0.37049  Biso   1.000  O
  O11      1.0000 0.14531  0.38158  0.67102  Biso   1.000  O
  O12      1.0000 0.36405  0.16284  0.67102  Biso   1.000  O
  O13      1.0000 0.66458  0.16284  0.37049  Biso   1.000  O
  O14      1.0000 0.66458  0.38158  0.15175  Biso   1.000  O
  O15      1.0000 0.14531  0.68212  0.67102  Biso   1.000  O
  O16      1.0000 0.36405  0.68212  0.67102  Biso   1.000  O
  O17      1.0000 0.66458  0.38158  0.67102  Biso   1.000  O
  O18      1.0000 0.66458  0.16284  0.67102  Biso   1.000  O
  O19      1.0000 0.14531  0.68212  0.37049  Biso   1.000  O
  O20      1.0000 0.36405  0.68212  0.15175  Biso   1.000  O
  O21      1.0000 0.75468  0.77221  0.28039  Biso   1.000  O
  O22      1.0000 0.75468  0.77221  0.06165  Biso   1.000  O
  O23      1.0000 0.05521  0.29149  0.76112  Biso   1.000  O
  O24      1.0000 0.27395  0.07274  0.76112  Biso   1.000  O
  O25      1.0000 0.27395  0.77221  0.06165  Biso   1.000  O
  O26      1.0000 0.05521  0.77221  0.28039  Biso   1.000  O
  O27      1.0000 0.75468  0.29149  0.76112  Biso   1.000  O
  O28      1.0000 0.75468  0.07274  0.76112  Biso   1.000  O
  O29      1.0000 0.05521  0.77221  0.76112  Biso   1.000  O
  O30      1.0000 0.27395  0.77221  0.76112  Biso   1.000  O
  O31      1.0000 0.75468  0.29149  0.06165  Biso   1.000  O
  O32      1.0000 0.75468  0.07274  0.28039  Biso   1.000  O
  O33      1.0000 0.68282  0.70036  0.17870  Biso   1.000  O
  O34      1.0000 0.68282  0.70036  0.30706  Biso   1.000  O
  O35      1.0000 0.17226  0.31816  0.68926  Biso   1.000  O
  O36      1.0000 0.30062  0.18979  0.68926  Biso   1.000  O
  O37      1.0000 0.68282  0.18979  0.30706  Biso   1.000  O
  O38      1.0000 0.68282  0.31816  0.17870  Biso   1.000  O
  O39      1.0000 0.17226  0.70036  0.68926  Biso   1.000  O
  O40      1.0000 0.30062  0.70036  0.68926  Biso   1.000  O
  O41      1.0000 0.68282  0.31816  0.68926  Biso   1.000  O
  O42      1.0000 0.68282  0.18979  0.68926  Biso   1.000  O
  O43      1.0000 0.17226  0.70036  0.30706  Biso   1.000  O
  O44      1.0000 0.30062  0.70036  0.17870  Biso   1.000  O
  O45      1.0000 0.73644  0.75397  0.25344  Biso   1.000  O
  O46      1.0000 0.73644  0.75397  0.12508  Biso   1.000  O
  O47      1.0000 0.11864  0.26454  0.74288  Biso   1.000  O
  O48      1.0000 0.24700  0.13617  0.74288  Biso   1.000  O
  O49      1.0000 0.24700  0.75397  0.12508  Biso   1.000  O
  O50      1.0000 0.11864  0.75397  0.25344  Biso   1.000  O
  O51      1.0000 0.73644  0.26454  0.74288  Biso   1.000  O
  O52      1.0000 0.73644  0.13617  0.74288  Biso   1.000  O
  O53      1.0000 0.11864  0.75397  0.74288  Biso   1.000  O
  O54      1.0000 0.24700  0.75397  0.74288  Biso   1.000  O
  O55      1.0000 0.73644  0.26454  0.12508  Biso   1.000  O
  O56      1.0000 0.73644  0.13617  0.25344  Biso   1.000  O
  O57      1.0000 0.59791  0.61544  0.32724  Biso   1.000  O
  O58      1.0000 0.65596  0.67350  0.26919  Biso   1.000  O
  O59      1.0000 0.32080  0.33834  0.60435  Biso   1.000  O
  O60      1.0000 0.26275  0.28028  0.66240  Biso   1.000  O
  O61      1.0000 0.59791  0.33834  0.32724  Biso   1.000  O
  O62      1.0000 0.65596  0.28028  0.26919  Biso   1.000  O
  O63      1.0000 0.32080  0.61544  0.60435  Biso   1.000  O
  O64      1.0000 0.26275  0.67350  0.66240  Biso   1.000  O
  O65      1.0000 0.59791  0.33834  0.60435  Biso   1.000  O
  O66      1.0000 0.65596  0.28028  0.66240  Biso   1.000  O
  O67      1.0000 0.32080  0.61544  0.32724  Biso   1.000  O
  O68      1.0000 0.26275  0.67350  0.26919  Biso   1.000  O
  O69      1.0000 0.82135  0.83889  0.10490  Biso   1.000  O
  O70      1.0000 0.76330  0.78083  0.16295  Biso   1.000  O
  O71      1.0000 0.09846  0.11599  0.82779  Biso   1.000  O
  O72      1.0000 0.15651  0.17405  0.76974  Biso   1.000  O
  O73      1.0000 0.09846  0.83889  0.10490  Biso   1.000  O
  O74      1.0000 0.15651  0.78083  0.16295  Biso   1.000  O
  O75      1.0000 0.82135  0.11599  0.82779  Biso   1.000  O
  O76      1.0000 0.76330  0.17405  0.76974  Biso   1.000  O
  O77      1.0000 0.09846  0.83889  0.82779  Biso   1.000  O
  O78      1.0000 0.15651  0.78083  0.76974  Biso   1.000  O
  O79      1.0000 0.82135  0.11599  0.10490  Biso   1.000  O
  O80      1.0000 0.76330  0.17405  0.16295  Biso   1.000  O
  O81      1.0000 0.45935  0.47689  0.46580  Biso   1.000  O
  O82      1.0000 0.95990  0.97744  0.96635  Biso   1.000  O
  O83      1.0000 0.57560  0.59314  0.28858  Biso   1.000  O
  O84      1.0000 0.57560  0.59314  0.41052  Biso   1.000  O
  O85      1.0000 0.28214  0.42161  0.58204  Biso   1.000  O
  O86      1.0000 0.40407  0.29967  0.58204  Biso   1.000  O
  O87      1.0000 0.57560  0.29967  0.41052  Biso   1.000  O
  O88      1.0000 0.57560  0.42161  0.28858  Biso   1.000  O
  O89      1.0000 0.28214  0.59314  0.58204  Biso   1.000  O
  O90      1.0000 0.40407  0.59314  0.58204  Biso   1.000  O
  O91      1.0000 0.57560  0.42161  0.58204  Biso   1.000  O
  O92      1.0000 0.57560  0.29967  0.58204  Biso   1.000  O
  O93      1.0000 0.28214  0.59314  0.41052  Biso   1.000  O
  O94      1.0000 0.40407  0.59314  0.28858  Biso   1.000  O
  O95      1.0000 0.84366  0.86119  0.14356  Biso   1.000  O
  O96      1.0000 0.84366  0.86119  0.02163  Biso   1.000  O
  O97      1.0000 0.01518  0.15465  0.85010  Biso   1.000  O
  O98      1.0000 0.13712  0.03272  0.85010  Biso   1.000  O
  O99      1.0000 0.13712  0.86119  0.02163  Biso   1.000  O
  O100     1.0000 0.01518  0.86119  0.14356  Biso   1.000  O
  O101     1.0000 0.84366  0.15465  0.85010  Biso   1.000  O
  O102     1.0000 0.84366  0.03272  0.85010  Biso   1.000  O
  O103     1.0000 0.01518  0.86119  0.85010  Biso   1.000  O
  O104     1.0000 0.13712  0.86119  0.85010  Biso   1.000  O
  O105     1.0000 0.84366  0.15465  0.02163  Biso   1.000  O
