data_image0
_cell_length_a       18.266
_cell_length_b       18.266
_cell_length_c       18.266
_cell_angle_alpha    60
_cell_angle_beta     60
_cell_angle_gamma    60

_symmetry_space_group_name_H-M    "P 1"
_symmetry_int_tables_number       1

loop_
  _symmetry_equiv_pos_as_xyz
  'x, y, z'

loop_
  _atom_site_label
  _atom_site_occupancy
  _atom_site_fract_x
  _atom_site_fract_y
  _atom_site_fract_z
  _atom_site_thermal_displace_type
  _atom_site_B_iso_or_equiv
  _atom_site_type_symbol
  C1       1.0000 0.29338  0.29338  0.29338  Biso   1.000  C
  C2       1.0000 0.29338  0.29338  0.11986  Biso   1.000  C
  C3       1.0000 0.29338  0.11986  0.29338  Biso   1.000  C
  C4       1.0000 0.11986  0.29338  0.29338  Biso   1.000  C
  C5       1.0000 0.70662  0.70662  0.70662  Biso   1.000  C
  C6       1.0000 0.70662  0.70662  0.88014  Biso   1.000  C
  C7       1.0000 0.88014  0.70662  0.70662  Biso   1.000  C
  C8       1.0000 0.70662  0.88014  0.70662  Biso   1.000  C
  C9       1.0000 0.15460  0.45520  0.45520  Biso   1.000  C
  C10      1.0000 0.45520  0.15460  0.93500  Biso   1.000  C
  C11      1.0000 0.45520  0.93500  0.15460  Biso   1.000  C
  C12      1.0000 0.93500  0.45520  0.45520  Biso   1.000  C
  C13      1.0000 0.15460  0.45520  0.93500  Biso   1.000  C
  C14      1.0000 0.45520  0.93500  0.45520  Biso   1.000  C
  C15      1.0000 0.45520  0.15460  0.45520  Biso   1.000  C
  C16      1.0000 0.93500  0.45520  0.15460  Biso   1.000  C
  C17      1.0000 0.15460  0.93500  0.45520  Biso   1.000  C
  C18      1.0000 0.45520  0.45520  0.15460  Biso   1.000  C
  C19      1.0000 0.45520  0.45520  0.93500  Biso   1.000  C
  C20      1.0000 0.93500  0.15460  0.45520  Biso   1.000  C
  C21      1.0000 0.54480  0.84540  0.54480  Biso   1.000  C
  C22      1.0000 0.84540  0.54480  0.06500  Biso   1.000  C
  C23      1.0000 0.06500  0.54480  0.84540  Biso   1.000  C
  C24      1.0000 0.54480  0.06500  0.54480  Biso   1.000  C
  C25      1.0000 0.54480  0.84540  0.06500  Biso   1.000  C
  C26      1.0000 0.06500  0.54480  0.54480  Biso   1.000  C
  C27      1.0000 0.84540  0.54480  0.54480  Biso   1.000  C
  C28      1.0000 0.54480  0.06500  0.84540  Biso   1.000  C
  C29      1.0000 0.06500  0.84540  0.54480  Biso   1.000  C
  C30      1.0000 0.54480  0.54480  0.84540  Biso   1.000  C
  C31      1.0000 0.54480  0.54480  0.06500  Biso   1.000  C
  C32      1.0000 0.84540  0.06500  0.54480  Biso   1.000  C
  C33      1.0000 0.09270  0.47310  0.47310  Biso   1.000  C
  C34      1.0000 0.47310  0.09270  0.96110  Biso   1.000  C
  C35      1.0000 0.47310  0.96110  0.09270  Biso   1.000  C
  C36      1.0000 0.96110  0.47310  0.47310  Biso   1.000  C
  C37      1.0000 0.09270  0.47310  0.96110  Biso   1.000  C
  C38      1.0000 0.47310  0.96110  0.47310  Biso   1.000  C
  C39      1.0000 0.47310  0.09270  0.47310  Biso   1.000  C
  C40      1.0000 0.96110  0.47310  0.09270  Biso   1.000  C
  C41      1.0000 0.09270  0.96110  0.47310  Biso   1.000  C
  C42      1.0000 0.47310  0.47310  0.09270  Biso   1.000  C
  C43      1.0000 0.47310  0.47310  0.96110  Biso   1.000  C
  C44      1.0000 0.96110  0.09270  0.47310  Biso   1.000  C
  C45      1.0000 0.52690  0.90730  0.52690  Biso   1.000  C
  C46      1.0000 0.90730  0.52690  0.03890  Biso   1.000  C
  C47      1.0000 0.03890  0.52690  0.90730  Biso   1.000  C
  C48      1.0000 0.52690  0.03890  0.52690  Biso   1.000  C
  C49      1.0000 0.52690  0.90730  0.03890  Biso   1.000  C
  C50      1.0000 0.03890  0.52690  0.52690  Biso   1.000  C
  C51      1.0000 0.90730  0.52690  0.52690  Biso   1.000  C
  C52      1.0000 0.52690  0.03890  0.90730  Biso   1.000  C
  C53      1.0000 0.03890  0.90730  0.52690  Biso   1.000  C
  C54      1.0000 0.52690  0.52690  0.90730  Biso   1.000  C
  C55      1.0000 0.52690  0.52690  0.03890  Biso   1.000  C
  C56      1.0000 0.90730  0.03890  0.52690  Biso   1.000  C
  C57      1.0000 0.11130  0.38870  0.38870  Biso   1.000  C
  C58      1.0000 0.05380  0.44620  0.44620  Biso   1.000  C
  C59      1.0000 0.38870  0.11130  0.11130  Biso   1.000  C
  C60      1.0000 0.44620  0.05380  0.05380  Biso   1.000  C
  C61      1.0000 0.11130  0.38870  0.11130  Biso   1.000  C
  C62      1.0000 0.05380  0.44620  0.05380  Biso   1.000  C
  C63      1.0000 0.38870  0.11130  0.38870  Biso   1.000  C
  C64      1.0000 0.44620  0.05380  0.44620  Biso   1.000  C
  C65      1.0000 0.11130  0.11130  0.38870  Biso   1.000  C
  C66      1.0000 0.05380  0.05380  0.44620  Biso   1.000  C
  C67      1.0000 0.38870  0.38870  0.11130  Biso   1.000  C
  C68      1.0000 0.44620  0.44620  0.05380  Biso   1.000  C
  C69      1.0000 0.61130  0.88870  0.61130  Biso   1.000  C
  C70      1.0000 0.55380  0.94620  0.55380  Biso   1.000  C
  C71      1.0000 0.88870  0.61130  0.88870  Biso   1.000  C
  C72      1.0000 0.94620  0.55380  0.94620  Biso   1.000  C
  C73      1.0000 0.61130  0.88870  0.88870  Biso   1.000  C
  C74      1.0000 0.55380  0.94620  0.94620  Biso   1.000  C
  C75      1.0000 0.88870  0.61130  0.61130  Biso   1.000  C
  C76      1.0000 0.94620  0.55380  0.55380  Biso   1.000  C
  C77      1.0000 0.88870  0.88870  0.61130  Biso   1.000  C
  C78      1.0000 0.94620  0.94620  0.55380  Biso   1.000  C
  C79      1.0000 0.61130  0.61130  0.88870  Biso   1.000  C
  C80      1.0000 0.55380  0.55380  0.94620  Biso   1.000  C
  C81      1.0000 0.25000  0.25000  0.25000  Biso   1.000  C
  C82      1.0000 0.75000  0.75000  0.75000  Biso   1.000  C
  C83      1.0000 0.19777  0.36600  0.36600  Biso   1.000  C
  C84      1.0000 0.36600  0.19777  0.07023  Biso   1.000  C
  C85      1.0000 0.36600  0.07023  0.19777  Biso   1.000  C
  C86      1.0000 0.07023  0.36600  0.36600  Biso   1.000  C
  C87      1.0000 0.19777  0.36600  0.07023  Biso   1.000  C
  C88      1.0000 0.36600  0.07023  0.36600  Biso   1.000  C
  C89      1.0000 0.36600  0.19777  0.36600  Biso   1.000  C
  C90      1.0000 0.07023  0.36600  0.19777  Biso   1.000  C
  C91      1.0000 0.19777  0.07023  0.36600  Biso   1.000  C
  C92      1.0000 0.36600  0.36600  0.19777  Biso   1.000  C
  C93      1.0000 0.36600  0.36600  0.07023  Biso   1.000  C
  C94      1.0000 0.07023  0.19777  0.36600  Biso   1.000  C
  C95      1.0000 0.63400  0.80223  0.63400  Biso   1.000  C
  C96      1.0000 0.80223  0.63400  0.92977  Biso   1.000  C
  C97      1.0000 0.92977  0.63400  0.80223  Biso   1.000  C
  C98      1.0000 0.63400  0.92977  0.63400  Biso   1.000  C
  C99      1.0000 0.63400  0.80223  0.92977  Biso   1.000  C
  C100     1.0000 0.92977  0.63400  0.63400  Biso   1.000  C
  C101     1.0000 0.80223  0.63400  0.63400  Biso   1.000  C
  C102     1.0000 0.63400  0.92977  0.80223  Biso   1.000  C
  C103     1.0000 0.92977  0.80223  0.63400  Biso   1.000  C
  C104     1.0000 0.63400  0.63400  0.80223  Biso   1.000  C
  C105     1.0000 0.63400  0.63400  0.92977  Biso   1.000  C
  C106     1.0000 0.80223  0.92977  0.63400  Biso   1.000  C
  O1       1.0000 0.00000  0.00000  0.00000  Biso   1.000  O
  O2       1.0000 0.57304  0.41783  0.59130  Biso   1.000  O
  O3       1.0000 0.57304  0.59145  0.59130  Biso   1.000  O
  O4       1.0000 0.00000  0.17362  0.00000  Biso   1.000  O
  O5       1.0000 0.99996  0.99992  0.17382  Biso   1.000  O
  O6       1.0000 0.17339  0.00018  0.99987  Biso   1.000  O
  O7       1.0000 0.57308  0.59152  0.41749  Biso   1.000  O
  O8       1.0000 0.39965  0.59127  0.59143  Biso   1.000  O
  O9       1.0000 0.82653  0.84331  0.36595  Biso   1.000  O
  O10      1.0000 0.82558  0.84486  0.13636  Biso   1.000  O
  O11      1.0000 0.82269  0.13641  0.84570  Biso   1.000  O
  O12      1.0000 0.74651  0.45362  0.22536  Biso   1.000  O
  O13      1.0000 0.74746  0.22463  0.45494  Biso   1.000  O
  O14      1.0000 0.75035  0.22263  0.74560  Biso   1.000  O
  O15      1.0000 0.74651  0.74813  0.22536  Biso   1.000  O
  O16      1.0000 0.74746  0.74659  0.45494  Biso   1.000  O
  O17      1.0000 0.75035  0.45503  0.74560  Biso   1.000  O
  O18      1.0000 0.82653  0.13783  0.36595  Biso   1.000  O
  O19      1.0000 0.82558  0.36681  0.13636  Biso   1.000  O
  O20      1.0000 0.82269  0.36881  0.84570  Biso   1.000  O
  O21      1.0000 0.91280  0.91184  0.17828  Biso   1.000  O
  O22      1.0000 0.84879  0.84733  0.23755  Biso   1.000  O
  O23      1.0000 0.81087  0.82191  0.33958  Biso   1.000  O
  O24      1.0000 0.81092  0.82335  0.19959  Biso   1.000  O
  O25      1.0000 0.17431  0.91245  0.91259  Biso   1.000  O
  O26      1.0000 0.80931  0.19954  0.82201  Biso   1.000  O
  O27      1.0000 0.66023  0.42076  0.41302  Biso   1.000  O
  O28      1.0000 0.72425  0.35150  0.35376  Biso   1.000  O
  O29      1.0000 0.76217  0.39019  0.25172  Biso   1.000  O
  O30      1.0000 0.76212  0.25169  0.39171  Biso   1.000  O
  O31      1.0000 0.39873  0.41718  0.67871  Biso   1.000  O
  O32      1.0000 0.76373  0.24870  0.76929  Biso   1.000  O
  O33      1.0000 0.66023  0.67960  0.41302  Biso   1.000  O
  O34      1.0000 0.72425  0.74412  0.35376  Biso   1.000  O
  O35      1.0000 0.76217  0.76954  0.25172  Biso   1.000  O
  O36      1.0000 0.76212  0.76810  0.39171  Biso   1.000  O
  O37      1.0000 0.39873  0.67899  0.67871  Biso   1.000  O
  O38      1.0000 0.76372  0.39191  0.76929  Biso   1.000  O
  O39      1.0000 0.91280  0.17068  0.17828  Biso   1.000  O
  O40      1.0000 0.84879  0.23995  0.23755  Biso   1.000  O
  O41      1.0000 0.81087  0.20125  0.33958  Biso   1.000  O
  O42      1.0000 0.81092  0.33976  0.19959  Biso   1.000  O
  O43      1.0000 0.17431  0.17427  0.91259  Biso   1.000  O
  O44      1.0000 0.80931  0.34275  0.82201  Biso   1.000  O
  O45      1.0000 0.17234  0.91155  0.17819  Biso   1.000  O
  O46      1.0000 0.90942  0.17536  0.91348  Biso   1.000  O
  O47      1.0000 0.84857  0.24017  0.84471  Biso   1.000  O
  O48      1.0000 0.40070  0.67990  0.41312  Biso   1.000  O
  O49      1.0000 0.66362  0.41609  0.67782  Biso   1.000  O
  O50      1.0000 0.72447  0.35128  0.74660  Biso   1.000  O
  O51      1.0000 0.93025  0.92809  0.22209  Biso   1.000  O
  O52      1.0000 0.92826  0.92731  0.09563  Biso   1.000  O
  O53      1.0000 0.22346  0.92791  0.92884  Biso   1.000  O
  O54      1.0000 0.09335  0.92771  0.92875  Biso   1.000  O
  O55      1.0000 0.92904  0.09390  0.92716  Biso   1.000  O
  O56      1.0000 0.64279  0.49826  0.36922  Biso   1.000  O
  O57      1.0000 0.64478  0.36903  0.49567  Biso   1.000  O
  O58      1.0000 0.34958  0.49804  0.66246  Biso   1.000  O
  O59      1.0000 0.47969  0.36763  0.66256  Biso   1.000  O
  O60      1.0000 0.64400  0.36793  0.66414  Biso   1.000  O
  O61      1.0000 0.64279  0.66335  0.36922  Biso   1.000  O
  O62      1.0000 0.64478  0.66414  0.49567  Biso   1.000  O
  O63      1.0000 0.34958  0.66353  0.66246  Biso   1.000  O
  O64      1.0000 0.47969  0.66373  0.66256  Biso   1.000  O
  O65      1.0000 0.64400  0.49755  0.66414  Biso   1.000  O
  O66      1.0000 0.93025  0.09319  0.22209  Biso   1.000  O
  O67      1.0000 0.92826  0.22242  0.09563  Biso   1.000  O
  O68      1.0000 0.22346  0.09340  0.92884  Biso   1.000  O
  O69      1.0000 0.09335  0.22381  0.92875  Biso   1.000  O
  O70      1.0000 0.92904  0.22352  0.92716  Biso   1.000  O
  O71      1.0000 0.04192  0.04474  0.04222  Biso   1.000  O
  O72      1.0000 0.09366  0.92819  0.22357  Biso   1.000  O
  O73      1.0000 0.22317  0.92830  0.09385  Biso   1.000  O
  O74      1.0000 0.53112  0.54671  0.54909  Biso   1.000  O
  O75      1.0000 0.47938  0.66325  0.36773  Biso   1.000  O
