data_image0
_cell_length_a       18.266
_cell_length_b       18.266
_cell_length_c       18.266
_cell_angle_alpha    60
_cell_angle_beta     60
_cell_angle_gamma    60

_symmetry_space_group_name_H-M    "P 1"
_symmetry_int_tables_number       1

loop_
  _symmetry_equiv_pos_as_xyz
  'x, y, z'

loop_
  _atom_site_label
  _atom_site_occupancy
  _atom_site_fract_x
  _atom_site_fract_y
  _atom_site_fract_z
  _atom_site_thermal_displace_type
  _atom_site_B_iso_or_equiv
  _atom_site_type_symbol
  Zn1      1.0000 0.29338  0.29338  0.29338  Biso   1.000  Zn
  Zn2      1.0000 0.29338  0.29338  0.11986  Biso   1.000  Zn
  Zn3      1.0000 0.29338  0.11986  0.29338  Biso   1.000  Zn
  Zn4      1.0000 0.11986  0.29338  0.29338  Biso   1.000  Zn
  Zn5      1.0000 0.70662  0.70662  0.70662  Biso   1.000  Zn
  Zn6      1.0000 0.70662  0.70662  0.88014  Biso   1.000  Zn
  Zn7      1.0000 0.88014  0.70662  0.70662  Biso   1.000  Zn
  Zn8      1.0000 0.70662  0.88014  0.70662  Biso   1.000  Zn
  H1       1.0000 0.15460  0.45520  0.45520  Biso   1.000  H
  H2       1.0000 0.45520  0.15460  0.93500  Biso   1.000  H
  H3       1.0000 0.45520  0.93500  0.15460  Biso   1.000  H
  H4       1.0000 0.93500  0.45520  0.45520  Biso   1.000  H
  H5       1.0000 0.15460  0.45520  0.93500  Biso   1.000  H
  H6       1.0000 0.45520  0.93500  0.45520  Biso   1.000  H
  H7       1.0000 0.45520  0.15460  0.45520  Biso   1.000  H
  H8       1.0000 0.93500  0.45520  0.15460  Biso   1.000  H
  H9       1.0000 0.15460  0.93500  0.45520  Biso   1.000  H
  H10      1.0000 0.45520  0.45520  0.15460  Biso   1.000  H
  H11      1.0000 0.45520  0.45520  0.93500  Biso   1.000  H
  H12      1.0000 0.93500  0.15460  0.45520  Biso   1.000  H
  H13      1.0000 0.54480  0.84540  0.54480  Biso   1.000  H
  H14      1.0000 0.84540  0.54480  0.06500  Biso   1.000  H
  H15      1.0000 0.06500  0.54480  0.84540  Biso   1.000  H
  H16      1.0000 0.54480  0.06500  0.54480  Biso   1.000  H
  H17      1.0000 0.54480  0.84540  0.06500  Biso   1.000  H
  H18      1.0000 0.06500  0.54480  0.54480  Biso   1.000  H
  H19      1.0000 0.84540  0.54480  0.54480  Biso   1.000  H
  H20      1.0000 0.54480  0.06500  0.84540  Biso   1.000  H
  H21      1.0000 0.06500  0.84540  0.54480  Biso   1.000  H
  H22      1.0000 0.54480  0.54480  0.84540  Biso   1.000  H
  H23      1.0000 0.54480  0.54480  0.06500  Biso   1.000  H
  H24      1.0000 0.84540  0.06500  0.54480  Biso   1.000  H
  C1       1.0000 0.09270  0.47310  0.47310  Biso   1.000  C
  C2       1.0000 0.47310  0.09270  0.96110  Biso   1.000  C
  C3       1.0000 0.47310  0.96110  0.09270  Biso   1.000  C
  C4       1.0000 0.96110  0.47310  0.47310  Biso   1.000  C
  C5       1.0000 0.09270  0.47310  0.96110  Biso   1.000  C
  C6       1.0000 0.47310  0.96110  0.47310  Biso   1.000  C
  C7       1.0000 0.47310  0.09270  0.47310  Biso   1.000  C
  C8       1.0000 0.96110  0.47310  0.09270  Biso   1.000  C
  C9       1.0000 0.09270  0.96110  0.47310  Biso   1.000  C
  C10      1.0000 0.47310  0.47310  0.09270  Biso   1.000  C
  C11      1.0000 0.47310  0.47310  0.96110  Biso   1.000  C
  C12      1.0000 0.96110  0.09270  0.47310  Biso   1.000  C
  C13      1.0000 0.52690  0.90730  0.52690  Biso   1.000  C
  C14      1.0000 0.90730  0.52690  0.03890  Biso   1.000  C
  C15      1.0000 0.03890  0.52690  0.90730  Biso   1.000  C
  C16      1.0000 0.52690  0.03890  0.52690  Biso   1.000  C
  C17      1.0000 0.52690  0.90730  0.03890  Biso   1.000  C
  C18      1.0000 0.03890  0.52690  0.52690  Biso   1.000  C
  C19      1.0000 0.90730  0.52690  0.52690  Biso   1.000  C
  C20      1.0000 0.52690  0.03890  0.90730  Biso   1.000  C
  C21      1.0000 0.03890  0.90730  0.52690  Biso   1.000  C
  C22      1.0000 0.52690  0.52690  0.90730  Biso   1.000  C
  C23      1.0000 0.52690  0.52690  0.03890  Biso   1.000  C
  C24      1.0000 0.90730  0.03890  0.52690  Biso   1.000  C
  C25      1.0000 0.11130  0.38870  0.38870  Biso   1.000  C
  C26      1.0000 0.05380  0.44620  0.44620  Biso   1.000  C
  C27      1.0000 0.38870  0.11130  0.11130  Biso   1.000  C
  C28      1.0000 0.44620  0.05380  0.05380  Biso   1.000  C
  C29      1.0000 0.11130  0.38870  0.11130  Biso   1.000  C
  C30      1.0000 0.05380  0.44620  0.05380  Biso   1.000  C
  C31      1.0000 0.38870  0.11130  0.38870  Biso   1.000  C
  C32      1.0000 0.44620  0.05380  0.44620  Biso   1.000  C
  C33      1.0000 0.11130  0.11130  0.38870  Biso   1.000  C
  C34      1.0000 0.05380  0.05380  0.44620  Biso   1.000  C
  C35      1.0000 0.38870  0.38870  0.11130  Biso   1.000  C
  C36      1.0000 0.44620  0.44620  0.05380  Biso   1.000  C
  C37      1.0000 0.61130  0.88870  0.61130  Biso   1.000  C
  C38      1.0000 0.55380  0.94620  0.55380  Biso   1.000  C
  C39      1.0000 0.88870  0.61130  0.88870  Biso   1.000  C
  C40      1.0000 0.94620  0.55380  0.94620  Biso   1.000  C
  C41      1.0000 0.61130  0.88870  0.88870  Biso   1.000  C
  C42      1.0000 0.55380  0.94620  0.94620  Biso   1.000  C
  C43      1.0000 0.88870  0.61130  0.61130  Biso   1.000  C
  C44      1.0000 0.94620  0.55380  0.55380  Biso   1.000  C
  C45      1.0000 0.88870  0.88870  0.61130  Biso   1.000  C
  C46      1.0000 0.94620  0.94620  0.55380  Biso   1.000  C
  C47      1.0000 0.61130  0.61130  0.88870  Biso   1.000  C
  C48      1.0000 0.55380  0.55380  0.94620  Biso   1.000  C
  O1       1.0000 0.25000  0.25000  0.25000  Biso   1.000  O
  O2       1.0000 0.75000  0.75000  0.75000  Biso   1.000  O
  O3       1.0000 0.19777  0.36600  0.36600  Biso   1.000  O
  O4       1.0000 0.36600  0.19777  0.07023  Biso   1.000  O
  O5       1.0000 0.36600  0.07023  0.19777  Biso   1.000  O
  O6       1.0000 0.07023  0.36600  0.36600  Biso   1.000  O
  O7       1.0000 0.19777  0.36600  0.07023  Biso   1.000  O
  O8       1.0000 0.36600  0.07023  0.36600  Biso   1.000  O
  O9       1.0000 0.36600  0.19777  0.36600  Biso   1.000  O
  O10      1.0000 0.07023  0.36600  0.19777  Biso   1.000  O
  O11      1.0000 0.19777  0.07023  0.36600  Biso   1.000  O
  O12      1.0000 0.36600  0.36600  0.19777  Biso   1.000  O
  O13      1.0000 0.36600  0.36600  0.07023  Biso   1.000  O
  O14      1.0000 0.07023  0.19777  0.36600  Biso   1.000  O
  O15      1.0000 0.63400  0.80223  0.63400  Biso   1.000  O
  O16      1.0000 0.80223  0.63400  0.92977  Biso   1.000  O
  O17      1.0000 0.92977  0.63400  0.80223  Biso   1.000  O
  O18      1.0000 0.63400  0.92977  0.63400  Biso   1.000  O
  O19      1.0000 0.63400  0.80223  0.92977  Biso   1.000  O
  O20      1.0000 0.92977  0.63400  0.63400  Biso   1.000  O
  O21      1.0000 0.80223  0.63400  0.63400  Biso   1.000  O
  O22      1.0000 0.63400  0.92977  0.80223  Biso   1.000  O
  O23      1.0000 0.92977  0.80223  0.63400  Biso   1.000  O
  O24      1.0000 0.63400  0.63400  0.80223  Biso   1.000  O
  O25      1.0000 0.63400  0.63400  0.92977  Biso   1.000  O
  O26      1.0000 0.80223  0.92977  0.63400  Biso   1.000  O
  Zn9      1.0000 0.00551  0.84032  0.13410  Biso   1.000  Zn
  Zn10     1.0000 0.00551  0.01368  0.13410  Biso   1.000  Zn
  Zn11     1.0000 0.83215  0.01368  0.13410  Biso   1.000  Zn
  Zn12     1.0000 0.00551  0.01368  0.96074  Biso   1.000  Zn
  Zn13     1.0000 0.42022  0.42654  0.54696  Biso   1.000  Zn
  Zn14     1.0000 0.42022  0.59990  0.54696  Biso   1.000  Zn
  Zn15     1.0000 0.59358  0.42654  0.54696  Biso   1.000  Zn
  Zn16     1.0000 0.42022  0.42654  0.72032  Biso   1.000  Zn
  H25      1.0000 0.87469  0.65625  0.29155  Biso   1.000  H
  H26      1.0000 0.16295  0.17113  0.00328  Biso   1.000  H
  H27      1.0000 0.64808  0.88286  0.29155  Biso   1.000  H
  H28      1.0000 0.16295  0.17113  0.77667  Biso   1.000  H
  H29      1.0000 0.64808  0.17113  0.00328  Biso   1.000  H
  H30      1.0000 0.16295  0.88286  0.29155  Biso   1.000  H
  H31      1.0000 0.87469  0.17113  0.77667  Biso   1.000  H
  H32      1.0000 0.16295  0.65625  0.29155  Biso   1.000  H
  H33      1.0000 0.16295  0.88286  0.77667  Biso   1.000  H
  H34      1.0000 0.87469  0.17113  0.29155  Biso   1.000  H
  H35      1.0000 0.16295  0.65625  0.00328  Biso   1.000  H
  H36      1.0000 0.64808  0.17113  0.29155  Biso   1.000  H
  H37      1.0000 0.55104  0.26909  0.38951  Biso   1.000  H
  H38      1.0000 0.26278  0.78397  0.67778  Biso   1.000  H
  H39      1.0000 0.77766  0.26909  0.38951  Biso   1.000  H
  H40      1.0000 0.26278  0.55736  0.90439  Biso   1.000  H
  H41      1.0000 0.77766  0.26909  0.67778  Biso   1.000  H
  H42      1.0000 0.26278  0.78397  0.38951  Biso   1.000  H
  H43      1.0000 0.55104  0.26909  0.90439  Biso   1.000  H
  H44      1.0000 0.26278  0.55736  0.38951  Biso   1.000  H
  H45      1.0000 0.26278  0.26909  0.90439  Biso   1.000  H
  H46      1.0000 0.55104  0.78397  0.38951  Biso   1.000  H
  H47      1.0000 0.26278  0.26909  0.67778  Biso   1.000  H
  H48      1.0000 0.77766  0.55736  0.38951  Biso   1.000  H
  C49      1.0000 0.80422  0.68187  0.31397  Biso   1.000  C
  C50      1.0000 0.18537  0.19355  0.93281  Biso   1.000  C
  C51      1.0000 0.67370  0.81240  0.31397  Biso   1.000  C
  C52      1.0000 0.18537  0.19355  0.80229  Biso   1.000  C
  C53      1.0000 0.67370  0.19355  0.93281  Biso   1.000  C
  C54      1.0000 0.18537  0.81240  0.31397  Biso   1.000  C
  C55      1.0000 0.80422  0.19355  0.80229  Biso   1.000  C
  C56      1.0000 0.18537  0.68187  0.31397  Biso   1.000  C
  C57      1.0000 0.18537  0.81240  0.80229  Biso   1.000  C
  C58      1.0000 0.80422  0.19355  0.31397  Biso   1.000  C
  C59      1.0000 0.18537  0.68187  0.93281  Biso   1.000  C
  C60      1.0000 0.67370  0.19355  0.31397  Biso   1.000  C
  C61      1.0000 0.62151  0.24667  0.36709  Biso   1.000  C
  C62      1.0000 0.24036  0.75835  0.74824  Biso   1.000  C
  C63      1.0000 0.75203  0.24667  0.36709  Biso   1.000  C
  C64      1.0000 0.24036  0.62782  0.87876  Biso   1.000  C
  C65      1.0000 0.75203  0.24667  0.74824  Biso   1.000  C
  C66      1.0000 0.24036  0.75835  0.36709  Biso   1.000  C
  C67      1.0000 0.62151  0.24667  0.87876  Biso   1.000  C
  C68      1.0000 0.24036  0.62782  0.36709  Biso   1.000  C
  C69      1.0000 0.24036  0.24667  0.87876  Biso   1.000  C
  C70      1.0000 0.62151  0.75835  0.36709  Biso   1.000  C
  C71      1.0000 0.24036  0.24667  0.74824  Biso   1.000  C
  C72      1.0000 0.75203  0.62782  0.36709  Biso   1.000  C
  C73      1.0000 0.82274  0.83091  0.23019  Biso   1.000  C
  C74      1.0000 0.76618  0.77436  0.28674  Biso   1.000  C
  C75      1.0000 0.10160  0.10977  0.95133  Biso   1.000  C
  C76      1.0000 0.15815  0.16632  0.89478  Biso   1.000  C
  C77      1.0000 0.82274  0.10977  0.95133  Biso   1.000  C
  C78      1.0000 0.76618  0.16632  0.89478  Biso   1.000  C
  C79      1.0000 0.10160  0.83091  0.23019  Biso   1.000  C
  C80      1.0000 0.15815  0.77436  0.28674  Biso   1.000  C
  C81      1.0000 0.10160  0.83091  0.95133  Biso   1.000  C
  C82      1.0000 0.15815  0.77436  0.89478  Biso   1.000  C
  C83      1.0000 0.82274  0.10977  0.23019  Biso   1.000  C
  C84      1.0000 0.76618  0.16632  0.28674  Biso   1.000  C
  C85      1.0000 0.60299  0.33045  0.45087  Biso   1.000  C
  C86      1.0000 0.65955  0.27389  0.39431  Biso   1.000  C
  C87      1.0000 0.32413  0.60931  0.72972  Biso   1.000  C
  C88      1.0000 0.26758  0.66586  0.78628  Biso   1.000  C
  C89      1.0000 0.60299  0.33045  0.72972  Biso   1.000  C
  C90      1.0000 0.65955  0.27389  0.78628  Biso   1.000  C
  C91      1.0000 0.32413  0.60931  0.45087  Biso   1.000  C
  C92      1.0000 0.26758  0.66586  0.39431  Biso   1.000  C
  C93      1.0000 0.32413  0.33045  0.72972  Biso   1.000  C
  C94      1.0000 0.26758  0.27389  0.78628  Biso   1.000  C
  C95      1.0000 0.60299  0.60931  0.45087  Biso   1.000  C
  C96      1.0000 0.65955  0.66586  0.39431  Biso   1.000  C
  O27      1.0000 0.96217  0.97034  0.09076  Biso   1.000  O
  O28      1.0000 0.46356  0.46988  0.59030  Biso   1.000  O
  O29      1.0000 0.90742  0.79348  0.20657  Biso   1.000  O
  O30      1.0000 0.07797  0.08615  0.03601  Biso   1.000  O
  O31      1.0000 0.78530  0.91559  0.20657  Biso   1.000  O
  O32      1.0000 0.07797  0.08615  0.91390  Biso   1.000  O
  O33      1.0000 0.78530  0.08615  0.03601  Biso   1.000  O
  O34      1.0000 0.07797  0.91559  0.20657  Biso   1.000  O
  O35      1.0000 0.90742  0.08615  0.91390  Biso   1.000  O
  O36      1.0000 0.07797  0.79348  0.20657  Biso   1.000  O
  O37      1.0000 0.07797  0.91559  0.91390  Biso   1.000  O
  O38      1.0000 0.90742  0.08615  0.20657  Biso   1.000  O
  O39      1.0000 0.07797  0.79348  0.03601  Biso   1.000  O
  O40      1.0000 0.78530  0.08615  0.20657  Biso   1.000  O
  O41      1.0000 0.51831  0.35407  0.47449  Biso   1.000  O
  O42      1.0000 0.34776  0.64674  0.64505  Biso   1.000  O
  O43      1.0000 0.64043  0.35407  0.47449  Biso   1.000  O
  O44      1.0000 0.34776  0.52463  0.76716  Biso   1.000  O
  O45      1.0000 0.64043  0.35407  0.64505  Biso   1.000  O
  O46      1.0000 0.34776  0.64674  0.47449  Biso   1.000  O
  O47      1.0000 0.51831  0.35407  0.76716  Biso   1.000  O
  O48      1.0000 0.34776  0.52463  0.47449  Biso   1.000  O
  O49      1.0000 0.34776  0.35407  0.76716  Biso   1.000  O
  O50      1.0000 0.51831  0.64674  0.47449  Biso   1.000  O
  O51      1.0000 0.34776  0.35407  0.64505  Biso   1.000  O
