data_image0
_cell_length_a       18.266
_cell_length_b       18.266
_cell_length_c       18.266
_cell_angle_alpha    60
_cell_angle_beta     60
_cell_angle_gamma    60

_symmetry_space_group_name_H-M    "P 1"
_symmetry_int_tables_number       1

loop_
  _symmetry_equiv_pos_as_xyz
  'x, y, z'

loop_
  _atom_site_label
  _atom_site_occupancy
  _atom_site_fract_x
  _atom_site_fract_y
  _atom_site_fract_z
  _atom_site_thermal_displace_type
  _atom_site_B_iso_or_equiv
  _atom_site_type_symbol
  C1       1.0000 0.29338  0.29338  0.29338  Biso   1.000  C
  C2       1.0000 0.29338  0.29338  0.11986  Biso   1.000  C
  C3       1.0000 0.29338  0.11986  0.29338  Biso   1.000  C
  C4       1.0000 0.11986  0.29338  0.29338  Biso   1.000  C
  C5       1.0000 0.70662  0.70662  0.70662  Biso   1.000  C
  C6       1.0000 0.70662  0.70662  0.88014  Biso   1.000  C
  C7       1.0000 0.88014  0.70662  0.70662  Biso   1.000  C
  C8       1.0000 0.70662  0.88014  0.70662  Biso   1.000  C
  C9       1.0000 0.15460  0.45520  0.45520  Biso   1.000  C
  C10      1.0000 0.45520  0.15460  0.93500  Biso   1.000  C
  C11      1.0000 0.45520  0.93500  0.15460  Biso   1.000  C
  C12      1.0000 0.93500  0.45520  0.45520  Biso   1.000  C
  C13      1.0000 0.15460  0.45520  0.93500  Biso   1.000  C
  C14      1.0000 0.45520  0.93500  0.45520  Biso   1.000  C
  C15      1.0000 0.45520  0.15460  0.45520  Biso   1.000  C
  C16      1.0000 0.93500  0.45520  0.15460  Biso   1.000  C
  C17      1.0000 0.15460  0.93500  0.45520  Biso   1.000  C
  C18      1.0000 0.45520  0.45520  0.15460  Biso   1.000  C
  C19      1.0000 0.45520  0.45520  0.93500  Biso   1.000  C
  C20      1.0000 0.93500  0.15460  0.45520  Biso   1.000  C
  C21      1.0000 0.54480  0.84540  0.54480  Biso   1.000  C
  C22      1.0000 0.84540  0.54480  0.06500  Biso   1.000  C
  C23      1.0000 0.06500  0.54480  0.84540  Biso   1.000  C
  C24      1.0000 0.54480  0.06500  0.54480  Biso   1.000  C
  C25      1.0000 0.54480  0.84540  0.06500  Biso   1.000  C
  C26      1.0000 0.06500  0.54480  0.54480  Biso   1.000  C
  C27      1.0000 0.84540  0.54480  0.54480  Biso   1.000  C
  C28      1.0000 0.54480  0.06500  0.84540  Biso   1.000  C
  C29      1.0000 0.06500  0.84540  0.54480  Biso   1.000  C
  C30      1.0000 0.54480  0.54480  0.84540  Biso   1.000  C
  C31      1.0000 0.54480  0.54480  0.06500  Biso   1.000  C
  C32      1.0000 0.84540  0.06500  0.54480  Biso   1.000  C
  C33      1.0000 0.09270  0.47310  0.47310  Biso   1.000  C
  C34      1.0000 0.47310  0.09270  0.96110  Biso   1.000  C
  C35      1.0000 0.47310  0.96110  0.09270  Biso   1.000  C
  C36      1.0000 0.96110  0.47310  0.47310  Biso   1.000  C
  C37      1.0000 0.09270  0.47310  0.96110  Biso   1.000  C
  C38      1.0000 0.47310  0.96110  0.47310  Biso   1.000  C
  C39      1.0000 0.47310  0.09270  0.47310  Biso   1.000  C
  C40      1.0000 0.96110  0.47310  0.09270  Biso   1.000  C
  C41      1.0000 0.09270  0.96110  0.47310  Biso   1.000  C
  C42      1.0000 0.47310  0.47310  0.09270  Biso   1.000  C
  C43      1.0000 0.47310  0.47310  0.96110  Biso   1.000  C
  C44      1.0000 0.96110  0.09270  0.47310  Biso   1.000  C
  C45      1.0000 0.52690  0.90730  0.52690  Biso   1.000  C
  C46      1.0000 0.90730  0.52690  0.03890  Biso   1.000  C
  C47      1.0000 0.03890  0.52690  0.90730  Biso   1.000  C
  C48      1.0000 0.52690  0.03890  0.52690  Biso   1.000  C
  C49      1.0000 0.52690  0.90730  0.03890  Biso   1.000  C
  C50      1.0000 0.03890  0.52690  0.52690  Biso   1.000  C
  C51      1.0000 0.90730  0.52690  0.52690  Biso   1.000  C
  C52      1.0000 0.52690  0.03890  0.90730  Biso   1.000  C
  C53      1.0000 0.03890  0.90730  0.52690  Biso   1.000  C
  C54      1.0000 0.52690  0.52690  0.90730  Biso   1.000  C
  C55      1.0000 0.52690  0.52690  0.03890  Biso   1.000  C
  C56      1.0000 0.90730  0.03890  0.52690  Biso   1.000  C
  C57      1.0000 0.11130  0.38870  0.38870  Biso   1.000  C
  C58      1.0000 0.05380  0.44620  0.44620  Biso   1.000  C
  C59      1.0000 0.38870  0.11130  0.11130  Biso   1.000  C
  C60      1.0000 0.44620  0.05380  0.05380  Biso   1.000  C
  C61      1.0000 0.11130  0.38870  0.11130  Biso   1.000  C
  C62      1.0000 0.05380  0.44620  0.05380  Biso   1.000  C
  C63      1.0000 0.38870  0.11130  0.38870  Biso   1.000  C
  C64      1.0000 0.44620  0.05380  0.44620  Biso   1.000  C
  C65      1.0000 0.11130  0.11130  0.38870  Biso   1.000  C
  C66      1.0000 0.05380  0.05380  0.44620  Biso   1.000  C
  C67      1.0000 0.38870  0.38870  0.11130  Biso   1.000  C
  C68      1.0000 0.44620  0.44620  0.05380  Biso   1.000  C
  C69      1.0000 0.61130  0.88870  0.61130  Biso   1.000  C
  C70      1.0000 0.55380  0.94620  0.55380  Biso   1.000  C
  C71      1.0000 0.88870  0.61130  0.88870  Biso   1.000  C
  C72      1.0000 0.94620  0.55380  0.94620  Biso   1.000  C
  C73      1.0000 0.61130  0.88870  0.88870  Biso   1.000  C
  C74      1.0000 0.55380  0.94620  0.94620  Biso   1.000  C
  C75      1.0000 0.88870  0.61130  0.61130  Biso   1.000  C
  C76      1.0000 0.94620  0.55380  0.55380  Biso   1.000  C
  C77      1.0000 0.88870  0.88870  0.61130  Biso   1.000  C
  C78      1.0000 0.94620  0.94620  0.55380  Biso   1.000  C
  C79      1.0000 0.61130  0.61130  0.88870  Biso   1.000  C
  C80      1.0000 0.55380  0.55380  0.94620  Biso   1.000  C
  C81      1.0000 0.25000  0.25000  0.25000  Biso   1.000  C
  C82      1.0000 0.75000  0.75000  0.75000  Biso   1.000  C
  C83      1.0000 0.19777  0.36600  0.36600  Biso   1.000  C
  C84      1.0000 0.36600  0.19777  0.07023  Biso   1.000  C
  C85      1.0000 0.36600  0.07023  0.19777  Biso   1.000  C
  C86      1.0000 0.07023  0.36600  0.36600  Biso   1.000  C
  C87      1.0000 0.19777  0.36600  0.07023  Biso   1.000  C
  C88      1.0000 0.36600  0.07023  0.36600  Biso   1.000  C
  C89      1.0000 0.36600  0.19777  0.36600  Biso   1.000  C
  C90      1.0000 0.07023  0.36600  0.19777  Biso   1.000  C
  C91      1.0000 0.19777  0.07023  0.36600  Biso   1.000  C
  C92      1.0000 0.36600  0.36600  0.19777  Biso   1.000  C
  C93      1.0000 0.36600  0.36600  0.07023  Biso   1.000  C
  C94      1.0000 0.07023  0.19777  0.36600  Biso   1.000  C
  C95      1.0000 0.63400  0.80223  0.63400  Biso   1.000  C
  C96      1.0000 0.80223  0.63400  0.92977  Biso   1.000  C
  C97      1.0000 0.92977  0.63400  0.80223  Biso   1.000  C
  C98      1.0000 0.63400  0.92977  0.63400  Biso   1.000  C
  C99      1.0000 0.63400  0.80223  0.92977  Biso   1.000  C
  C100     1.0000 0.92977  0.63400  0.63400  Biso   1.000  C
  C101     1.0000 0.80223  0.63400  0.63400  Biso   1.000  C
  C102     1.0000 0.63400  0.92977  0.80223  Biso   1.000  C
  C103     1.0000 0.92977  0.80223  0.63400  Biso   1.000  C
  C104     1.0000 0.63400  0.63400  0.80223  Biso   1.000  C
  C105     1.0000 0.63400  0.63400  0.92977  Biso   1.000  C
  C106     1.0000 0.80223  0.92977  0.63400  Biso   1.000  C
  O1       1.0000 0.50286  0.52041  0.33525  Biso   1.000  O
  O2       1.0000 0.50287  0.52040  0.50930  Biso   1.000  O
  O3       1.0000 0.32882  0.52041  0.50929  Biso   1.000  O
  O4       1.0000 0.50287  0.34636  0.50930  Biso   1.000  O
  O5       1.0000 0.91682  0.93437  0.09730  Biso   1.000  O
  O6       1.0000 0.91682  0.93436  0.92325  Biso   1.000  O
  O7       1.0000 0.91683  0.10840  0.92325  Biso   1.000  O
  O8       1.0000 0.09088  0.93435  0.92325  Biso   1.000  O
  O9       1.0000 0.66486  0.68239  0.15183  Biso   1.000  O
  O10      1.0000 0.66486  0.68239  0.37070  Biso   1.000  O
  O11      1.0000 0.14539  0.38181  0.67129  Biso   1.000  O
  O12      1.0000 0.36427  0.16293  0.67129  Biso   1.000  O
  O13      1.0000 0.66486  0.16293  0.37070  Biso   1.000  O
  O14      1.0000 0.66486  0.38181  0.15183  Biso   1.000  O
  O15      1.0000 0.14539  0.68239  0.67129  Biso   1.000  O
  O16      1.0000 0.36427  0.68239  0.67129  Biso   1.000  O
  O17      1.0000 0.66486  0.38181  0.67129  Biso   1.000  O
  O18      1.0000 0.66486  0.16293  0.67129  Biso   1.000  O
  O19      1.0000 0.14539  0.68239  0.37070  Biso   1.000  O
  O20      1.0000 0.36427  0.68239  0.15183  Biso   1.000  O
  O21      1.0000 0.75483  0.77237  0.28073  Biso   1.000  O
  O22      1.0000 0.75483  0.77237  0.06185  Biso   1.000  O
  O23      1.0000 0.05542  0.29183  0.76126  Biso   1.000  O
  O24      1.0000 0.27429  0.07296  0.76126  Biso   1.000  O
  O25      1.0000 0.27429  0.77237  0.06185  Biso   1.000  O
  O26      1.0000 0.05542  0.77237  0.28073  Biso   1.000  O
  O27      1.0000 0.75483  0.29183  0.76126  Biso   1.000  O
  O28      1.0000 0.75483  0.07296  0.76126  Biso   1.000  O
  O29      1.0000 0.05542  0.77237  0.76126  Biso   1.000  O
  O30      1.0000 0.27429  0.77237  0.76126  Biso   1.000  O
  O31      1.0000 0.75483  0.29183  0.06185  Biso   1.000  O
  O32      1.0000 0.75483  0.07296  0.28073  Biso   1.000  O
  O33      1.0000 0.68313  0.70067  0.17874  Biso   1.000  O
  O34      1.0000 0.68313  0.70067  0.30724  Biso   1.000  O
  O35      1.0000 0.17231  0.31834  0.68956  Biso   1.000  O
  O36      1.0000 0.30081  0.18984  0.68956  Biso   1.000  O
  O37      1.0000 0.68313  0.18984  0.30724  Biso   1.000  O
  O38      1.0000 0.68313  0.31834  0.17874  Biso   1.000  O
  O39      1.0000 0.17231  0.70067  0.68956  Biso   1.000  O
  O40      1.0000 0.30081  0.70067  0.68956  Biso   1.000  O
  O41      1.0000 0.68313  0.31834  0.68956  Biso   1.000  O
  O42      1.0000 0.68313  0.18984  0.68956  Biso   1.000  O
  O43      1.0000 0.17231  0.70067  0.30724  Biso   1.000  O
  O44      1.0000 0.30081  0.70067  0.17874  Biso   1.000  O
  O45      1.0000 0.73656  0.75409  0.25381  Biso   1.000  O
  O46      1.0000 0.73656  0.75409  0.12531  Biso   1.000  O
  O47      1.0000 0.11888  0.26492  0.74299  Biso   1.000  O
  O48      1.0000 0.24738  0.13642  0.74299  Biso   1.000  O
  O49      1.0000 0.24738  0.75409  0.12531  Biso   1.000  O
  O50      1.0000 0.11888  0.75409  0.25381  Biso   1.000  O
  O51      1.0000 0.73656  0.26492  0.74299  Biso   1.000  O
  O52      1.0000 0.73656  0.13642  0.74299  Biso   1.000  O
  O53      1.0000 0.11888  0.75409  0.74299  Biso   1.000  O
  O54      1.0000 0.24738  0.75409  0.74299  Biso   1.000  O
  O55      1.0000 0.73656  0.26492  0.12531  Biso   1.000  O
  O56      1.0000 0.73656  0.13642  0.25381  Biso   1.000  O
  O57      1.0000 0.59806  0.61559  0.32709  Biso   1.000  O
  O58      1.0000 0.65616  0.67370  0.26898  Biso   1.000  O
  O59      1.0000 0.32066  0.33819  0.60449  Biso   1.000  O
  O60      1.0000 0.26255  0.28009  0.66259  Biso   1.000  O
  O61      1.0000 0.59806  0.33819  0.32709  Biso   1.000  O
  O62      1.0000 0.65616  0.28009  0.26898  Biso   1.000  O
  O63      1.0000 0.32066  0.61559  0.60449  Biso   1.000  O
  O64      1.0000 0.26255  0.67370  0.66259  Biso   1.000  O
  O65      1.0000 0.59806  0.33819  0.60449  Biso   1.000  O
  O66      1.0000 0.65616  0.28009  0.66259  Biso   1.000  O
  O67      1.0000 0.32066  0.61559  0.32709  Biso   1.000  O
  O68      1.0000 0.26255  0.67370  0.26898  Biso   1.000  O
  O69      1.0000 0.82163  0.83917  0.10547  Biso   1.000  O
  O70      1.0000 0.76353  0.78107  0.16357  Biso   1.000  O
  O71      1.0000 0.09903  0.11657  0.82806  Biso   1.000  O
  O72      1.0000 0.15714  0.17467  0.76996  Biso   1.000  O
  O73      1.0000 0.09903  0.83917  0.10547  Biso   1.000  O
  O74      1.0000 0.15714  0.78107  0.16357  Biso   1.000  O
  O75      1.0000 0.82163  0.11657  0.82806  Biso   1.000  O
  O76      1.0000 0.76353  0.17467  0.76996  Biso   1.000  O
  O77      1.0000 0.09903  0.83917  0.82806  Biso   1.000  O
  O78      1.0000 0.15714  0.78107  0.76996  Biso   1.000  O
  O79      1.0000 0.82163  0.11657  0.10547  Biso   1.000  O
  O80      1.0000 0.76353  0.17467  0.16357  Biso   1.000  O
  O81      1.0000 0.45936  0.47689  0.46579  Biso   1.000  O
  O82      1.0000 0.96033  0.97787  0.96676  Biso   1.000  O
  O83      1.0000 0.57567  0.59321  0.28839  Biso   1.000  O
  O84      1.0000 0.57567  0.59321  0.41055  Biso   1.000  O
  O85      1.0000 0.28196  0.42165  0.58210  Biso   1.000  O
  O86      1.0000 0.40412  0.29950  0.58210  Biso   1.000  O
  O87      1.0000 0.57567  0.29950  0.41055  Biso   1.000  O
  O88      1.0000 0.57567  0.42165  0.28839  Biso   1.000  O
  O89      1.0000 0.28196  0.59321  0.58210  Biso   1.000  O
  O90      1.0000 0.40412  0.59321  0.58210  Biso   1.000  O
  O91      1.0000 0.57567  0.42165  0.58210  Biso   1.000  O
  O92      1.0000 0.57567  0.29950  0.58210  Biso   1.000  O
  O93      1.0000 0.28196  0.59321  0.41055  Biso   1.000  O
  O94      1.0000 0.40412  0.59321  0.28839  Biso   1.000  O
  O95      1.0000 0.84402  0.86155  0.14416  Biso   1.000  O
  O96      1.0000 0.84402  0.86155  0.02200  Biso   1.000  O
  O97      1.0000 0.01557  0.15527  0.85045  Biso   1.000  O
  O98      1.0000 0.13773  0.03311  0.85045  Biso   1.000  O
  O99      1.0000 0.13773  0.86155  0.02200  Biso   1.000  O
  O100     1.0000 0.01557  0.86155  0.14416  Biso   1.000  O
  O101     1.0000 0.84402  0.15527  0.85045  Biso   1.000  O
  O102     1.0000 0.84402  0.03311  0.85045  Biso   1.000  O
  O103     1.0000 0.01557  0.86155  0.85045  Biso   1.000  O
  O104     1.0000 0.13773  0.86155  0.85045  Biso   1.000  O
  O105     1.0000 0.84402  0.15527  0.02200  Biso   1.000  O
