data_image0
_cell_length_a       18.266
_cell_length_b       18.266
_cell_length_c       18.266
_cell_angle_alpha    60
_cell_angle_beta     60
_cell_angle_gamma    60

_symmetry_space_group_name_H-M    "P 1"
_symmetry_int_tables_number       1

loop_
  _symmetry_equiv_pos_as_xyz
  'x, y, z'

loop_
  _atom_site_label
  _atom_site_occupancy
  _atom_site_fract_x
  _atom_site_fract_y
  _atom_site_fract_z
  _atom_site_thermal_displace_type
  _atom_site_B_iso_or_equiv
  _atom_site_type_symbol
  C1       1.0000 0.29338  0.29338  0.29338  Biso   1.000  C
  C2       1.0000 0.29338  0.29338  0.11986  Biso   1.000  C
  C3       1.0000 0.29338  0.11986  0.29338  Biso   1.000  C
  C4       1.0000 0.11986  0.29338  0.29338  Biso   1.000  C
  C5       1.0000 0.70662  0.70662  0.70662  Biso   1.000  C
  C6       1.0000 0.70662  0.70662  0.88014  Biso   1.000  C
  C7       1.0000 0.88014  0.70662  0.70662  Biso   1.000  C
  C8       1.0000 0.70662  0.88014  0.70662  Biso   1.000  C
  C9       1.0000 0.15460  0.45520  0.45520  Biso   1.000  C
  C10      1.0000 0.45520  0.15460  0.93500  Biso   1.000  C
  C11      1.0000 0.45520  0.93500  0.15460  Biso   1.000  C
  C12      1.0000 0.93500  0.45520  0.45520  Biso   1.000  C
  C13      1.0000 0.15460  0.45520  0.93500  Biso   1.000  C
  C14      1.0000 0.45520  0.93500  0.45520  Biso   1.000  C
  C15      1.0000 0.45520  0.15460  0.45520  Biso   1.000  C
  C16      1.0000 0.93500  0.45520  0.15460  Biso   1.000  C
  C17      1.0000 0.15460  0.93500  0.45520  Biso   1.000  C
  C18      1.0000 0.45520  0.45520  0.15460  Biso   1.000  C
  C19      1.0000 0.45520  0.45520  0.93500  Biso   1.000  C
  C20      1.0000 0.93500  0.15460  0.45520  Biso   1.000  C
  C21      1.0000 0.54480  0.84540  0.54480  Biso   1.000  C
  C22      1.0000 0.84540  0.54480  0.06500  Biso   1.000  C
  C23      1.0000 0.06500  0.54480  0.84540  Biso   1.000  C
  C24      1.0000 0.54480  0.06500  0.54480  Biso   1.000  C
  C25      1.0000 0.54480  0.84540  0.06500  Biso   1.000  C
  C26      1.0000 0.06500  0.54480  0.54480  Biso   1.000  C
  C27      1.0000 0.84540  0.54480  0.54480  Biso   1.000  C
  C28      1.0000 0.54480  0.06500  0.84540  Biso   1.000  C
  C29      1.0000 0.06500  0.84540  0.54480  Biso   1.000  C
  C30      1.0000 0.54480  0.54480  0.84540  Biso   1.000  C
  C31      1.0000 0.54480  0.54480  0.06500  Biso   1.000  C
  C32      1.0000 0.84540  0.06500  0.54480  Biso   1.000  C
  C33      1.0000 0.09270  0.47310  0.47310  Biso   1.000  C
  C34      1.0000 0.47310  0.09270  0.96110  Biso   1.000  C
  C35      1.0000 0.47310  0.96110  0.09270  Biso   1.000  C
  C36      1.0000 0.96110  0.47310  0.47310  Biso   1.000  C
  C37      1.0000 0.09270  0.47310  0.96110  Biso   1.000  C
  C38      1.0000 0.47310  0.96110  0.47310  Biso   1.000  C
  C39      1.0000 0.47310  0.09270  0.47310  Biso   1.000  C
  C40      1.0000 0.96110  0.47310  0.09270  Biso   1.000  C
  C41      1.0000 0.09270  0.96110  0.47310  Biso   1.000  C
  C42      1.0000 0.47310  0.47310  0.09270  Biso   1.000  C
  C43      1.0000 0.47310  0.47310  0.96110  Biso   1.000  C
  C44      1.0000 0.96110  0.09270  0.47310  Biso   1.000  C
  C45      1.0000 0.52690  0.90730  0.52690  Biso   1.000  C
  C46      1.0000 0.90730  0.52690  0.03890  Biso   1.000  C
  C47      1.0000 0.03890  0.52690  0.90730  Biso   1.000  C
  C48      1.0000 0.52690  0.03890  0.52690  Biso   1.000  C
  C49      1.0000 0.52690  0.90730  0.03890  Biso   1.000  C
  C50      1.0000 0.03890  0.52690  0.52690  Biso   1.000  C
  C51      1.0000 0.90730  0.52690  0.52690  Biso   1.000  C
  C52      1.0000 0.52690  0.03890  0.90730  Biso   1.000  C
  C53      1.0000 0.03890  0.90730  0.52690  Biso   1.000  C
  C54      1.0000 0.52690  0.52690  0.90730  Biso   1.000  C
  C55      1.0000 0.52690  0.52690  0.03890  Biso   1.000  C
  C56      1.0000 0.90730  0.03890  0.52690  Biso   1.000  C
  C57      1.0000 0.11130  0.38870  0.38870  Biso   1.000  C
  C58      1.0000 0.05380  0.44620  0.44620  Biso   1.000  C
  C59      1.0000 0.38870  0.11130  0.11130  Biso   1.000  C
  C60      1.0000 0.44620  0.05380  0.05380  Biso   1.000  C
  C61      1.0000 0.11130  0.38870  0.11130  Biso   1.000  C
  C62      1.0000 0.05380  0.44620  0.05380  Biso   1.000  C
  C63      1.0000 0.38870  0.11130  0.38870  Biso   1.000  C
  C64      1.0000 0.44620  0.05380  0.44620  Biso   1.000  C
  C65      1.0000 0.11130  0.11130  0.38870  Biso   1.000  C
  C66      1.0000 0.05380  0.05380  0.44620  Biso   1.000  C
  C67      1.0000 0.38870  0.38870  0.11130  Biso   1.000  C
  C68      1.0000 0.44620  0.44620  0.05380  Biso   1.000  C
  C69      1.0000 0.61130  0.88870  0.61130  Biso   1.000  C
  C70      1.0000 0.55380  0.94620  0.55380  Biso   1.000  C
  C71      1.0000 0.88870  0.61130  0.88870  Biso   1.000  C
  C72      1.0000 0.94620  0.55380  0.94620  Biso   1.000  C
  C73      1.0000 0.61130  0.88870  0.88870  Biso   1.000  C
  C74      1.0000 0.55380  0.94620  0.94620  Biso   1.000  C
  C75      1.0000 0.88870  0.61130  0.61130  Biso   1.000  C
  C76      1.0000 0.94620  0.55380  0.55380  Biso   1.000  C
  C77      1.0000 0.88870  0.88870  0.61130  Biso   1.000  C
  C78      1.0000 0.94620  0.94620  0.55380  Biso   1.000  C
  C79      1.0000 0.61130  0.61130  0.88870  Biso   1.000  C
  C80      1.0000 0.55380  0.55380  0.94620  Biso   1.000  C
  C81      1.0000 0.25000  0.25000  0.25000  Biso   1.000  C
  C82      1.0000 0.75000  0.75000  0.75000  Biso   1.000  C
  C83      1.0000 0.19777  0.36600  0.36600  Biso   1.000  C
  C84      1.0000 0.36600  0.19777  0.07023  Biso   1.000  C
  C85      1.0000 0.36600  0.07023  0.19777  Biso   1.000  C
  C86      1.0000 0.07023  0.36600  0.36600  Biso   1.000  C
  C87      1.0000 0.19777  0.36600  0.07023  Biso   1.000  C
  C88      1.0000 0.36600  0.07023  0.36600  Biso   1.000  C
  C89      1.0000 0.36600  0.19777  0.36600  Biso   1.000  C
  C90      1.0000 0.07023  0.36600  0.19777  Biso   1.000  C
  C91      1.0000 0.19777  0.07023  0.36600  Biso   1.000  C
  C92      1.0000 0.36600  0.36600  0.19777  Biso   1.000  C
  C93      1.0000 0.36600  0.36600  0.07023  Biso   1.000  C
  C94      1.0000 0.07023  0.19777  0.36600  Biso   1.000  C
  C95      1.0000 0.63400  0.80223  0.63400  Biso   1.000  C
  C96      1.0000 0.80223  0.63400  0.92977  Biso   1.000  C
  C97      1.0000 0.92977  0.63400  0.80223  Biso   1.000  C
  C98      1.0000 0.63400  0.92977  0.63400  Biso   1.000  C
  C99      1.0000 0.63400  0.80223  0.92977  Biso   1.000  C
  C100     1.0000 0.92977  0.63400  0.63400  Biso   1.000  C
  C101     1.0000 0.80223  0.63400  0.63400  Biso   1.000  C
  C102     1.0000 0.63400  0.92977  0.80223  Biso   1.000  C
  C103     1.0000 0.92977  0.80223  0.63400  Biso   1.000  C
  C104     1.0000 0.63400  0.63400  0.80223  Biso   1.000  C
  C105     1.0000 0.63400  0.63400  0.92977  Biso   1.000  C
  C106     1.0000 0.80223  0.92977  0.63400  Biso   1.000  C
  O1       1.0000 0.17222  0.97376  0.87166  Biso   1.000  O
  O2       1.0000 0.58525  0.38678  0.45862  Biso   1.000  O
  O3       1.0000 0.41102  0.56101  0.45862  Biso   1.000  O
  O4       1.0000 0.99799  0.14799  0.87166  Biso   1.000  O
  O5       1.0000 0.99779  0.97357  0.04602  Biso   1.000  O
  O6       1.0000 0.99792  0.97369  0.87145  Biso   1.000  O
  O7       1.0000 0.58544  0.56121  0.28425  Biso   1.000  O
  O8       1.0000 0.58531  0.56108  0.45883  Biso   1.000  O
  O9       1.0000 0.83540  0.33153  0.01295  Biso   1.000  O
  O10      1.0000 0.83228  0.11482  0.22669  Biso   1.000  O
  O11      1.0000 0.83901  0.32955  0.71066  Biso   1.000  O
  O12      1.0000 0.83851  0.11365  0.70537  Biso   1.000  O
  O13      1.0000 0.35488  0.11425  0.71246  Biso   1.000  O
  O14      1.0000 0.22747  0.72361  0.31733  Biso   1.000  O
  O15      1.0000 0.44419  0.72672  0.10358  Biso   1.000  O
  O16      1.0000 0.22946  0.72000  0.61961  Biso   1.000  O
  O17      1.0000 0.44536  0.72050  0.62491  Biso   1.000  O
  O18      1.0000 0.44476  0.20413  0.61782  Biso   1.000  O
  O19      1.0000 0.74784  0.20325  0.31733  Biso   1.000  O
  O20      1.0000 0.75096  0.41996  0.10358  Biso   1.000  O
  O21      1.0000 0.74423  0.20523  0.61961  Biso   1.000  O
  O22      1.0000 0.74473  0.42113  0.62491  Biso   1.000  O
  O23      1.0000 0.22836  0.42053  0.61782  Biso   1.000  O
  O24      1.0000 0.35576  0.81116  0.01295  Biso   1.000  O
  O25      1.0000 0.13905  0.80805  0.22669  Biso   1.000  O
  O26      1.0000 0.35378  0.81477  0.71066  Biso   1.000  O
  O27      1.0000 0.13788  0.81428  0.70537  Biso   1.000  O
  O28      1.0000 0.13848  0.33065  0.71246  Biso   1.000  O
  O29      1.0000 0.83669  0.81246  0.01225  Biso   1.000  O
  O30      1.0000 0.83398  0.80975  0.23059  Biso   1.000  O
  O31      1.0000 0.74655  0.72231  0.31803  Biso   1.000  O
  O32      1.0000 0.74926  0.72502  0.09968  Biso   1.000  O
  O33      1.0000 0.90334  0.15769  0.05162  Biso   1.000  O
  O34      1.0000 0.84458  0.21465  0.11198  Biso   1.000  O
  O35      1.0000 0.81851  0.30505  0.07520  Biso   1.000  O
  O36      1.0000 0.81669  0.17697  0.20111  Biso   1.000  O
  O37      1.0000 0.90375  0.15651  0.77522  Biso   1.000  O
  O38      1.0000 0.84790  0.21217  0.71836  Biso   1.000  O
  O39      1.0000 0.82013  0.30387  0.69317  Biso   1.000  O
  O40      1.0000 0.81972  0.17560  0.68978  Biso   1.000  O
  O41      1.0000 0.32860  0.17630  0.69297  Biso   1.000  O
  O42      1.0000 0.40132  0.65567  0.27866  Biso   1.000  O
  O43      1.0000 0.34436  0.71443  0.21830  Biso   1.000  O
  O44      1.0000 0.25396  0.74050  0.25507  Biso   1.000  O
  O45      1.0000 0.38204  0.74231  0.12916  Biso   1.000  O
  O46      1.0000 0.40250  0.65525  0.55506  Biso   1.000  O
  O47      1.0000 0.34684  0.71111  0.61192  Biso   1.000  O
  O48      1.0000 0.25513  0.73888  0.63710  Biso   1.000  O
  O49      1.0000 0.38341  0.73928  0.64050  Biso   1.000  O
  O50      1.0000 0.38270  0.23041  0.63730  Biso   1.000  O
  O51      1.0000 0.67990  0.37708  0.27866  Biso   1.000  O
  O52      1.0000 0.73866  0.32013  0.21830  Biso   1.000  O
  O53      1.0000 0.76473  0.22973  0.25507  Biso   1.000  O
  O54      1.0000 0.76654  0.35780  0.12916  Biso   1.000  O
  O55      1.0000 0.67949  0.37827  0.55506  Biso   1.000  O
  O56      1.0000 0.73534  0.32261  0.61192  Biso   1.000  O
  O57      1.0000 0.76311  0.23091  0.63710  Biso   1.000  O
  O58      1.0000 0.76352  0.35918  0.64050  Biso   1.000  O
  O59      1.0000 0.25464  0.35848  0.63730  Biso   1.000  O
  O60      1.0000 0.18192  0.87911  0.05162  Biso   1.000  O
  O61      1.0000 0.23888  0.82035  0.11198  Biso   1.000  O
  O62      1.0000 0.32928  0.79427  0.07520  Biso   1.000  O
  O63      1.0000 0.20120  0.79247  0.20111  Biso   1.000  O
  O64      1.0000 0.18074  0.87952  0.77522  Biso   1.000  O
  O65      1.0000 0.23640  0.82367  0.71836  Biso   1.000  O
  O66      1.0000 0.32810  0.79589  0.69317  Biso   1.000  O
  O67      1.0000 0.19983  0.79549  0.68978  Biso   1.000  O
  O68      1.0000 0.20053  0.30437  0.69297  Biso   1.000  O
  O69      1.0000 0.90164  0.87741  0.05821  Biso   1.000  O
  O70      1.0000 0.84558  0.82135  0.11118  Biso   1.000  O
  O71      1.0000 0.81900  0.79477  0.07420  Biso   1.000  O
  O72      1.0000 0.81660  0.79237  0.20311  Biso   1.000  O
  O73      1.0000 0.17784  0.15361  0.78041  Biso   1.000  O
  O74      1.0000 0.23800  0.21377  0.71846  Biso   1.000  O
  O75      1.0000 0.68160  0.65737  0.27206  Biso   1.000  O
  O76      1.0000 0.73766  0.71343  0.21910  Biso   1.000  O
  O77      1.0000 0.76424  0.74000  0.25607  Biso   1.000  O
  O78      1.0000 0.76664  0.74241  0.12716  Biso   1.000  O
  O79      1.0000 0.40540  0.38116  0.54986  Biso   1.000  O
  O80      1.0000 0.34524  0.32101  0.61182  Biso   1.000  O
  O81      1.0000 0.92342  0.07206  0.09509  Biso   1.000  O
  O82      1.0000 0.92582  0.19817  0.96898  Biso   1.000  O
  O83      1.0000 0.92314  0.07097  0.80050  Biso   1.000  O
  O84      1.0000 0.92533  0.19668  0.79770  Biso   1.000  O
  O85      1.0000 0.22021  0.07067  0.80000  Biso   1.000  O
  O86      1.0000 0.48695  0.63559  0.23519  Biso   1.000  O
  O87      1.0000 0.36084  0.63318  0.36130  Biso   1.000  O
  O88      1.0000 0.48803  0.63587  0.52978  Biso   1.000  O
  O89      1.0000 0.36233  0.63367  0.53258  Biso   1.000  O
  O90      1.0000 0.48834  0.33880  0.53028  Biso   1.000  O
  O91      1.0000 0.65982  0.46272  0.23519  Biso   1.000  O
  O92      1.0000 0.65742  0.33661  0.36130  Biso   1.000  O
  O93      1.0000 0.66010  0.46380  0.52978  Biso   1.000  O
  O94      1.0000 0.65791  0.33810  0.53258  Biso   1.000  O
  O95      1.0000 0.36303  0.46410  0.53028  Biso   1.000  O
  O96      1.0000 0.09629  0.89919  0.09509  Biso   1.000  O
  O97      1.0000 0.22240  0.90159  0.96898  Biso   1.000  O
  O98      1.0000 0.09520  0.89891  0.80050  Biso   1.000  O
  O99      1.0000 0.22091  0.90110  0.79770  Biso   1.000  O
  O100     1.0000 0.09490  0.19598  0.80000  Biso   1.000  O
  O101     1.0000 0.04134  0.01711  0.91552  Biso   1.000  O
  O102     1.0000 0.92482  0.90059  0.09409  Biso   1.000  O
  O103     1.0000 0.92323  0.89900  0.97367  Biso   1.000  O
  O104     1.0000 0.54190  0.51767  0.41476  Biso   1.000  O
  O105     1.0000 0.65842  0.63419  0.23619  Biso   1.000  O
