data_image0
_cell_length_a       18.3149
_cell_length_b       18.3149
_cell_length_c       18.3149
_cell_angle_alpha    60.3295
_cell_angle_beta     60.3295
_cell_angle_gamma    60.3295

_symmetry_space_group_name_H-M    "P 1"
_symmetry_int_tables_number       1

loop_
  _symmetry_equiv_pos_as_xyz
  'x, y, z'

loop_
  _atom_site_label
  _atom_site_occupancy
  _atom_site_fract_x
  _atom_site_fract_y
  _atom_site_fract_z
  _atom_site_thermal_displace_type
  _atom_site_B_iso_or_equiv
  _atom_site_type_symbol
  C1       1.0000 0.20609  0.20609  0.20609  Biso   1.000  C
  C2       1.0000 0.79391  0.79391  0.79391  Biso   1.000  C
  C3       1.0000 0.20677  0.37952  0.20677  Biso   1.000  C
  C4       1.0000 0.20677  0.20677  0.37952  Biso   1.000  C
  C5       1.0000 0.37952  0.20677  0.20677  Biso   1.000  C
  C6       1.0000 0.62048  0.79323  0.79323  Biso   1.000  C
  C7       1.0000 0.79323  0.79323  0.62048  Biso   1.000  C
  C8       1.0000 0.79323  0.62048  0.79323  Biso   1.000  C
  C9       1.0000 0.04260  0.34350  0.56530  Biso   1.000  C
  C10      1.0000 0.56530  0.04260  0.34350  Biso   1.000  C
  C11      1.0000 0.34350  0.56530  0.04260  Biso   1.000  C
  C12      1.0000 0.65650  0.95740  0.43470  Biso   1.000  C
  C13      1.0000 0.95740  0.43470  0.65650  Biso   1.000  C
  C14      1.0000 0.43470  0.65650  0.95740  Biso   1.000  C
  C15      1.0000 0.95740  0.65650  0.43470  Biso   1.000  C
  C16      1.0000 0.43470  0.95740  0.65650  Biso   1.000  C
  C17      1.0000 0.65650  0.43470  0.95740  Biso   1.000  C
  C18      1.0000 0.34350  0.04260  0.56530  Biso   1.000  C
  C19      1.0000 0.04260  0.56530  0.34350  Biso   1.000  C
  C20      1.0000 0.56530  0.34350  0.04260  Biso   1.000  C
  C21      1.0000 0.04880  0.55860  0.04880  Biso   1.000  C
  C22      1.0000 0.04170  0.34450  0.04170  Biso   1.000  C
  C23      1.0000 0.04880  0.04880  0.55860  Biso   1.000  C
  C24      1.0000 0.04170  0.04170  0.34450  Biso   1.000  C
  C25      1.0000 0.55860  0.04880  0.04880  Biso   1.000  C
  C26      1.0000 0.34450  0.04170  0.04170  Biso   1.000  C
  C27      1.0000 0.44140  0.95120  0.95120  Biso   1.000  C
  C28      1.0000 0.65550  0.95830  0.95830  Biso   1.000  C
  C29      1.0000 0.95120  0.95120  0.44140  Biso   1.000  C
  C30      1.0000 0.95830  0.95830  0.65550  Biso   1.000  C
  C31      1.0000 0.95120  0.44140  0.95120  Biso   1.000  C
  C32      1.0000 0.95830  0.65550  0.95830  Biso   1.000  C
  C33      1.0000 0.02770  0.40510  0.53870  Biso   1.000  C
  C34      1.0000 0.53870  0.02770  0.40510  Biso   1.000  C
  C35      1.0000 0.40510  0.53870  0.02770  Biso   1.000  C
  C36      1.0000 0.59490  0.97230  0.46130  Biso   1.000  C
  C37      1.0000 0.97230  0.46130  0.59490  Biso   1.000  C
  C38      1.0000 0.46130  0.59490  0.97230  Biso   1.000  C
  C39      1.0000 0.97230  0.59490  0.46130  Biso   1.000  C
  C40      1.0000 0.46130  0.97230  0.59490  Biso   1.000  C
  C41      1.0000 0.59490  0.46130  0.97230  Biso   1.000  C
  C42      1.0000 0.40510  0.02770  0.53870  Biso   1.000  C
  C43      1.0000 0.02770  0.53870  0.40510  Biso   1.000  C
  C44      1.0000 0.53870  0.40510  0.02770  Biso   1.000  C
  C45      1.0000 0.11130  0.39010  0.11130  Biso   1.000  C
  C46      1.0000 0.05390  0.44400  0.05390  Biso   1.000  C
  C47      1.0000 0.02940  0.53530  0.02940  Biso   1.000  C
  C48      1.0000 0.02520  0.40600  0.02520  Biso   1.000  C
  C49      1.0000 0.11130  0.11130  0.39010  Biso   1.000  C
  C50      1.0000 0.05390  0.05390  0.44400  Biso   1.000  C
  C51      1.0000 0.02940  0.02940  0.53530  Biso   1.000  C
  C52      1.0000 0.02520  0.02520  0.40600  Biso   1.000  C
  C53      1.0000 0.39010  0.11130  0.11130  Biso   1.000  C
  C54      1.0000 0.44400  0.05390  0.05390  Biso   1.000  C
  C55      1.0000 0.53530  0.02940  0.02940  Biso   1.000  C
  C56      1.0000 0.40600  0.02520  0.02520  Biso   1.000  C
  C57      1.0000 0.60990  0.88870  0.88870  Biso   1.000  C
  C58      1.0000 0.55600  0.94610  0.94610  Biso   1.000  C
  C59      1.0000 0.46470  0.97060  0.97060  Biso   1.000  C
  C60      1.0000 0.59400  0.97480  0.97480  Biso   1.000  C
  C61      1.0000 0.88870  0.88870  0.60990  Biso   1.000  C
  C62      1.0000 0.94610  0.94610  0.55600  Biso   1.000  C
  C63      1.0000 0.97060  0.97060  0.46470  Biso   1.000  C
  C64      1.0000 0.97480  0.97480  0.59400  Biso   1.000  C
  C65      1.0000 0.88870  0.60990  0.88870  Biso   1.000  C
  C66      1.0000 0.94610  0.55600  0.94610  Biso   1.000  C
  C67      1.0000 0.97060  0.46470  0.97060  Biso   1.000  C
  C68      1.0000 0.97480  0.59400  0.97480  Biso   1.000  C
  C69      1.0000 0.11170  0.38940  0.38940  Biso   1.000  C
  C70      1.0000 0.05990  0.44245  0.44245  Biso   1.000  C
  C71      1.0000 0.38940  0.11170  0.38940  Biso   1.000  C
  C72      1.0000 0.44245  0.05990  0.44245  Biso   1.000  C
  C73      1.0000 0.38940  0.38940  0.11170  Biso   1.000  C
  C74      1.0000 0.44245  0.44245  0.05990  Biso   1.000  C
  C75      1.0000 0.61060  0.88830  0.61060  Biso   1.000  C
  C76      1.0000 0.55755  0.94010  0.55755  Biso   1.000  C
  C77      1.0000 0.88830  0.61060  0.61060  Biso   1.000  C
  C78      1.0000 0.94010  0.55755  0.55755  Biso   1.000  C
  C79      1.0000 0.61060  0.61060  0.88830  Biso   1.000  C
  C80      1.0000 0.55755  0.55755  0.94010  Biso   1.000  C
  C81      1.0000 0.13529  0.42759  0.30119  Biso   1.000  C
  C82      1.0000 0.30119  0.13529  0.42759  Biso   1.000  C
  C83      1.0000 0.42759  0.30119  0.13529  Biso   1.000  C
  C84      1.0000 0.57241  0.86471  0.69881  Biso   1.000  C
  C85      1.0000 0.86471  0.69881  0.57241  Biso   1.000  C
  C86      1.0000 0.69881  0.57241  0.86471  Biso   1.000  C
  C87      1.0000 0.86471  0.57241  0.69881  Biso   1.000  C
  C88      1.0000 0.69881  0.86471  0.57241  Biso   1.000  C
  C89      1.0000 0.57241  0.69881  0.86471  Biso   1.000  C
  C90      1.0000 0.42759  0.13529  0.30119  Biso   1.000  C
  C91      1.0000 0.13529  0.30119  0.42759  Biso   1.000  C
  C92      1.0000 0.30119  0.42759  0.13529  Biso   1.000  C
  C93      1.0000 0.25153  0.25153  0.25153  Biso   1.000  C
  C94      1.0000 0.74847  0.74847  0.74847  Biso   1.000  C
  C95      1.0000 0.13410  0.30220  0.13410  Biso   1.000  C
  C96      1.0000 0.13380  0.42820  0.13380  Biso   1.000  C
  C97      1.0000 0.13410  0.13410  0.30220  Biso   1.000  C
  C98      1.0000 0.13380  0.13380  0.42820  Biso   1.000  C
  C99      1.0000 0.30220  0.13410  0.13410  Biso   1.000  C
  C100     1.0000 0.42820  0.13380  0.13380  Biso   1.000  C
  C101     1.0000 0.69780  0.86590  0.86590  Biso   1.000  C
  C102     1.0000 0.57180  0.86620  0.86620  Biso   1.000  C
  C103     1.0000 0.86590  0.86590  0.69780  Biso   1.000  C
  C104     1.0000 0.86620  0.86620  0.57180  Biso   1.000  C
  C105     1.0000 0.86590  0.69780  0.86590  Biso   1.000  C
  C106     1.0000 0.86620  0.57180  0.86620  Biso   1.000  C
  O1       1.0000 0.01181  0.83565  0.13319  Biso   1.000  O
  O2       1.0000 0.01296  0.00798  0.13319  Biso   1.000  O
  O3       1.0000 0.84006  0.00798  0.13319  Biso   1.000  O
  O4       1.0000 0.01196  0.00755  0.96101  Biso   1.000  O
  O5       1.0000 0.41663  0.42287  0.55003  Biso   1.000  O
  O6       1.0000 0.41777  0.59520  0.55003  Biso   1.000  O
  O7       1.0000 0.58953  0.42287  0.55003  Biso   1.000  O
  O8       1.0000 0.41763  0.42330  0.72221  Biso   1.000  O
  O9       1.0000 0.88104  0.65307  0.28957  Biso   1.000  O
  O10      1.0000 0.17027  0.16416  0.00326  Biso   1.000  O
  O11      1.0000 0.65653  0.87833  0.28957  Biso   1.000  O
  O12      1.0000 0.16896  0.16360  0.77818  Biso   1.000  O
  O13      1.0000 0.65676  0.16416  0.00326  Biso   1.000  O
  O14      1.0000 0.17003  0.87833  0.28957  Biso   1.000  O
  O15      1.0000 0.88146  0.16360  0.77818  Biso   1.000  O
  O16      1.0000 0.16854  0.65307  0.28957  Biso   1.000  O
  O17      1.0000 0.16706  0.87705  0.77818  Biso   1.000  O
  O18      1.0000 0.88444  0.16488  0.28957  Biso   1.000  O
  O19      1.0000 0.16687  0.65235  0.00326  Biso   1.000  O
  O20      1.0000 0.65843  0.16488  0.28957  Biso   1.000  O
  O21      1.0000 0.54515  0.26597  0.39365  Biso   1.000  O
  O22      1.0000 0.26272  0.77850  0.67996  Biso   1.000  O
  O23      1.0000 0.77116  0.26597  0.39365  Biso   1.000  O
  O24      1.0000 0.26253  0.55380  0.90504  Biso   1.000  O
  O25      1.0000 0.77282  0.26669  0.67996  Biso   1.000  O
  O26      1.0000 0.26105  0.77778  0.39365  Biso   1.000  O
  O27      1.0000 0.54813  0.26725  0.90504  Biso   1.000  O
  O28      1.0000 0.25956  0.55252  0.39365  Biso   1.000  O
  O29      1.0000 0.26063  0.26725  0.90504  Biso   1.000  O
  O30      1.0000 0.54855  0.77778  0.39365  Biso   1.000  O
  O31      1.0000 0.25932  0.26669  0.67996  Biso   1.000  O
  O32      1.0000 0.77306  0.55252  0.39365  Biso   1.000  O
  O33      1.0000 0.81106  0.67859  0.31184  Biso   1.000  O
  O34      1.0000 0.19237  0.18628  0.93327  Biso   1.000  O
  O35      1.0000 0.68175  0.80834  0.31184  Biso   1.000  O
  O36      1.0000 0.19162  0.18595  0.80363  Biso   1.000  O
  O37      1.0000 0.68206  0.18628  0.93327  Biso   1.000  O
  O38      1.0000 0.19206  0.80834  0.31184  Biso   1.000  O
  O39      1.0000 0.81148  0.18595  0.80363  Biso   1.000  O
  O40      1.0000 0.19120  0.67859  0.31184  Biso   1.000  O
  O41      1.0000 0.18910  0.80707  0.80363  Biso   1.000  O
  O42      1.0000 0.81444  0.18722  0.31184  Biso   1.000  O
  O43      1.0000 0.18899  0.67765  0.93327  Biso   1.000  O
  O44      1.0000 0.68426  0.18722  0.31184  Biso   1.000  O
  O45      1.0000 0.61515  0.24363  0.37138  Biso   1.000  O
  O46      1.0000 0.24059  0.75320  0.74995  Biso   1.000  O
  O47      1.0000 0.74532  0.24363  0.37138  Biso   1.000  O
  O48      1.0000 0.24049  0.62378  0.87959  Biso   1.000  O
  O49      1.0000 0.74753  0.24458  0.74995  Biso   1.000  O
  O50      1.0000 0.23839  0.75226  0.37138  Biso   1.000  O
  O51      1.0000 0.61811  0.24490  0.87959  Biso   1.000  O
  O52      1.0000 0.23753  0.62251  0.37138  Biso   1.000  O
  O53      1.0000 0.23797  0.24490  0.87959  Biso   1.000  O
  O54      1.0000 0.61853  0.75226  0.37138  Biso   1.000  O
  O55      1.0000 0.23722  0.24458  0.74995  Biso   1.000  O
  O56      1.0000 0.74784  0.62251  0.37138  Biso   1.000  O
  O57      1.0000 0.83003  0.82654  0.22863  Biso   1.000  O
  O58      1.0000 0.77358  0.77046  0.28480  Biso   1.000  O
  O59      1.0000 0.10837  0.10304  0.95166  Biso   1.000  O
  O60      1.0000 0.16482  0.15912  0.89549  Biso   1.000  O
  O61      1.0000 0.83025  0.10304  0.95166  Biso   1.000  O
  O62      1.0000 0.77390  0.15912  0.89549  Biso   1.000  O
  O63      1.0000 0.10814  0.82654  0.22863  Biso   1.000  O
  O64      1.0000 0.16450  0.77046  0.28480  Biso   1.000  O
  O65      1.0000 0.10653  0.82584  0.95166  Biso   1.000  O
  O66      1.0000 0.16223  0.76949  0.89549  Biso   1.000  O
  O67      1.0000 0.83187  0.10374  0.22863  Biso   1.000  O
  O68      1.0000 0.77617  0.16009  0.28480  Biso   1.000  O
  O69      1.0000 0.59772  0.32712  0.45459  Biso   1.000  O
  O70      1.0000 0.65342  0.27076  0.39842  Biso   1.000  O
  O71      1.0000 0.32306  0.60501  0.73156  Biso   1.000  O
  O72      1.0000 0.26736  0.66136  0.78773  Biso   1.000  O
  O73      1.0000 0.59933  0.32781  0.73156  Biso   1.000  O
  O74      1.0000 0.65569  0.27173  0.78773  Biso   1.000  O
  O75      1.0000 0.32145  0.60431  0.45459  Biso   1.000  O
  O76      1.0000 0.26509  0.66039  0.39842  Biso   1.000  O
  O77      1.0000 0.32122  0.32781  0.73156  Biso   1.000  O
  O78      1.0000 0.26477  0.27173  0.78773  Biso   1.000  O
  O79      1.0000 0.59956  0.60431  0.45459  Biso   1.000  O
  O80      1.0000 0.65601  0.66039  0.39842  Biso   1.000  O
  O81      1.0000 0.96920  0.96479  0.09015  Biso   1.000  O
  O82      1.0000 0.46039  0.46606  0.59307  Biso   1.000  O
  O83      1.0000 0.91409  0.78927  0.20517  Biso   1.000  O
  O84      1.0000 0.08514  0.07977  0.03577  Biso   1.000  O
  O85      1.0000 0.79311  0.91065  0.20517  Biso   1.000  O
  O86      1.0000 0.08444  0.07947  0.91448  Biso   1.000  O
  O87      1.0000 0.79325  0.07977  0.03577  Biso   1.000  O
  O88      1.0000 0.08500  0.91065  0.20517  Biso   1.000  O
  O89      1.0000 0.91434  0.07947  0.91448  Biso   1.000  O
  O90      1.0000 0.08420  0.78927  0.20517  Biso   1.000  O
  O91      1.0000 0.08331  0.90993  0.91448  Biso   1.000  O
  O92      1.0000 0.91603  0.08020  0.20517  Biso   1.000  O
  O93      1.0000 0.08321  0.78884  0.03577  Biso   1.000  O
  O94      1.0000 0.79424  0.08020  0.20517  Biso   1.000  O
  O95      1.0000 0.51356  0.35066  0.47805  Biso   1.000  O
  O96      1.0000 0.34637  0.64201  0.64745  Biso   1.000  O
  O97      1.0000 0.63535  0.35066  0.47805  Biso   1.000  O
  O98      1.0000 0.34627  0.52093  0.76874  Biso   1.000  O
  O99      1.0000 0.63633  0.35108  0.64745  Biso   1.000  O
  O100     1.0000 0.34539  0.64158  0.47805  Biso   1.000  O
  O101     1.0000 0.51525  0.35138  0.76874  Biso   1.000  O
  O102     1.0000 0.34458  0.52020  0.47805  Biso   1.000  O
  O103     1.0000 0.34515  0.35138  0.76874  Biso   1.000  O
  O104     1.0000 0.51549  0.64158  0.47805  Biso   1.000  O
  O105     1.0000 0.34444  0.35108  0.64745  Biso   1.000  O
