data_image0
_cell_length_a       18.3149
_cell_length_b       18.3149
_cell_length_c       18.3149
_cell_angle_alpha    60.3295
_cell_angle_beta     60.3295
_cell_angle_gamma    60.3295

_symmetry_space_group_name_H-M    "P 1"
_symmetry_int_tables_number       1

loop_
  _symmetry_equiv_pos_as_xyz
  'x, y, z'

loop_
  _atom_site_label
  _atom_site_occupancy
  _atom_site_fract_x
  _atom_site_fract_y
  _atom_site_fract_z
  _atom_site_thermal_displace_type
  _atom_site_B_iso_or_equiv
  _atom_site_type_symbol
  C1       1.0000 0.20609  0.20609  0.20609  Biso   1.000  C
  C2       1.0000 0.79391  0.79391  0.79391  Biso   1.000  C
  C3       1.0000 0.20677  0.37952  0.20677  Biso   1.000  C
  C4       1.0000 0.20677  0.20677  0.37952  Biso   1.000  C
  C5       1.0000 0.37952  0.20677  0.20677  Biso   1.000  C
  C6       1.0000 0.62048  0.79323  0.79323  Biso   1.000  C
  C7       1.0000 0.79323  0.79323  0.62048  Biso   1.000  C
  C8       1.0000 0.79323  0.62048  0.79323  Biso   1.000  C
  C9       1.0000 0.04260  0.34350  0.56530  Biso   1.000  C
  C10      1.0000 0.56530  0.04260  0.34350  Biso   1.000  C
  C11      1.0000 0.34350  0.56530  0.04260  Biso   1.000  C
  C12      1.0000 0.65650  0.95740  0.43470  Biso   1.000  C
  C13      1.0000 0.95740  0.43470  0.65650  Biso   1.000  C
  C14      1.0000 0.43470  0.65650  0.95740  Biso   1.000  C
  C15      1.0000 0.95740  0.65650  0.43470  Biso   1.000  C
  C16      1.0000 0.43470  0.95740  0.65650  Biso   1.000  C
  C17      1.0000 0.65650  0.43470  0.95740  Biso   1.000  C
  C18      1.0000 0.34350  0.04260  0.56530  Biso   1.000  C
  C19      1.0000 0.04260  0.56530  0.34350  Biso   1.000  C
  C20      1.0000 0.56530  0.34350  0.04260  Biso   1.000  C
  C21      1.0000 0.04880  0.55860  0.04880  Biso   1.000  C
  C22      1.0000 0.04170  0.34450  0.04170  Biso   1.000  C
  C23      1.0000 0.04880  0.04880  0.55860  Biso   1.000  C
  C24      1.0000 0.04170  0.04170  0.34450  Biso   1.000  C
  C25      1.0000 0.55860  0.04880  0.04880  Biso   1.000  C
  C26      1.0000 0.34450  0.04170  0.04170  Biso   1.000  C
  C27      1.0000 0.44140  0.95120  0.95120  Biso   1.000  C
  C28      1.0000 0.65550  0.95830  0.95830  Biso   1.000  C
  C29      1.0000 0.95120  0.95120  0.44140  Biso   1.000  C
  C30      1.0000 0.95830  0.95830  0.65550  Biso   1.000  C
  C31      1.0000 0.95120  0.44140  0.95120  Biso   1.000  C
  C32      1.0000 0.95830  0.65550  0.95830  Biso   1.000  C
  C33      1.0000 0.02770  0.40510  0.53870  Biso   1.000  C
  C34      1.0000 0.53870  0.02770  0.40510  Biso   1.000  C
  C35      1.0000 0.40510  0.53870  0.02770  Biso   1.000  C
  C36      1.0000 0.59490  0.97230  0.46130  Biso   1.000  C
  C37      1.0000 0.97230  0.46130  0.59490  Biso   1.000  C
  C38      1.0000 0.46130  0.59490  0.97230  Biso   1.000  C
  C39      1.0000 0.97230  0.59490  0.46130  Biso   1.000  C
  C40      1.0000 0.46130  0.97230  0.59490  Biso   1.000  C
  C41      1.0000 0.59490  0.46130  0.97230  Biso   1.000  C
  C42      1.0000 0.40510  0.02770  0.53870  Biso   1.000  C
  C43      1.0000 0.02770  0.53870  0.40510  Biso   1.000  C
  C44      1.0000 0.53870  0.40510  0.02770  Biso   1.000  C
  C45      1.0000 0.11130  0.39010  0.11130  Biso   1.000  C
  C46      1.0000 0.05390  0.44400  0.05390  Biso   1.000  C
  C47      1.0000 0.02940  0.53530  0.02940  Biso   1.000  C
  C48      1.0000 0.02520  0.40600  0.02520  Biso   1.000  C
  C49      1.0000 0.11130  0.11130  0.39010  Biso   1.000  C
  C50      1.0000 0.05390  0.05390  0.44400  Biso   1.000  C
  C51      1.0000 0.02940  0.02940  0.53530  Biso   1.000  C
  C52      1.0000 0.02520  0.02520  0.40600  Biso   1.000  C
  C53      1.0000 0.39010  0.11130  0.11130  Biso   1.000  C
  C54      1.0000 0.44400  0.05390  0.05390  Biso   1.000  C
  C55      1.0000 0.53530  0.02940  0.02940  Biso   1.000  C
  C56      1.0000 0.40600  0.02520  0.02520  Biso   1.000  C
  C57      1.0000 0.60990  0.88870  0.88870  Biso   1.000  C
  C58      1.0000 0.55600  0.94610  0.94610  Biso   1.000  C
  C59      1.0000 0.46470  0.97060  0.97060  Biso   1.000  C
  C60      1.0000 0.59400  0.97480  0.97480  Biso   1.000  C
  C61      1.0000 0.88870  0.88870  0.60990  Biso   1.000  C
  C62      1.0000 0.94610  0.94610  0.55600  Biso   1.000  C
  C63      1.0000 0.97060  0.97060  0.46470  Biso   1.000  C
  C64      1.0000 0.97480  0.97480  0.59400  Biso   1.000  C
  C65      1.0000 0.88870  0.60990  0.88870  Biso   1.000  C
  C66      1.0000 0.94610  0.55600  0.94610  Biso   1.000  C
  C67      1.0000 0.97060  0.46470  0.97060  Biso   1.000  C
  C68      1.0000 0.97480  0.59400  0.97480  Biso   1.000  C
  C69      1.0000 0.11170  0.38940  0.38940  Biso   1.000  C
  C70      1.0000 0.05990  0.44245  0.44245  Biso   1.000  C
  C71      1.0000 0.38940  0.11170  0.38940  Biso   1.000  C
  C72      1.0000 0.44245  0.05990  0.44245  Biso   1.000  C
  C73      1.0000 0.38940  0.38940  0.11170  Biso   1.000  C
  C74      1.0000 0.44245  0.44245  0.05990  Biso   1.000  C
  C75      1.0000 0.61060  0.88830  0.61060  Biso   1.000  C
  C76      1.0000 0.55755  0.94010  0.55755  Biso   1.000  C
  C77      1.0000 0.88830  0.61060  0.61060  Biso   1.000  C
  C78      1.0000 0.94010  0.55755  0.55755  Biso   1.000  C
  C79      1.0000 0.61060  0.61060  0.88830  Biso   1.000  C
  C80      1.0000 0.55755  0.55755  0.94010  Biso   1.000  C
  C81      1.0000 0.13529  0.42759  0.30119  Biso   1.000  C
  C82      1.0000 0.30119  0.13529  0.42759  Biso   1.000  C
  C83      1.0000 0.42759  0.30119  0.13529  Biso   1.000  C
  C84      1.0000 0.57241  0.86471  0.69881  Biso   1.000  C
  C85      1.0000 0.86471  0.69881  0.57241  Biso   1.000  C
  C86      1.0000 0.69881  0.57241  0.86471  Biso   1.000  C
  C87      1.0000 0.86471  0.57241  0.69881  Biso   1.000  C
  C88      1.0000 0.69881  0.86471  0.57241  Biso   1.000  C
  C89      1.0000 0.57241  0.69881  0.86471  Biso   1.000  C
  C90      1.0000 0.42759  0.13529  0.30119  Biso   1.000  C
  C91      1.0000 0.13529  0.30119  0.42759  Biso   1.000  C
  C92      1.0000 0.30119  0.42759  0.13529  Biso   1.000  C
  C93      1.0000 0.25153  0.25153  0.25153  Biso   1.000  C
  C94      1.0000 0.74847  0.74847  0.74847  Biso   1.000  C
  C95      1.0000 0.13410  0.30220  0.13410  Biso   1.000  C
  C96      1.0000 0.13380  0.42820  0.13380  Biso   1.000  C
  C97      1.0000 0.13410  0.13410  0.30220  Biso   1.000  C
  C98      1.0000 0.13380  0.13380  0.42820  Biso   1.000  C
  C99      1.0000 0.30220  0.13410  0.13410  Biso   1.000  C
  C100     1.0000 0.42820  0.13380  0.13380  Biso   1.000  C
  C101     1.0000 0.69780  0.86590  0.86590  Biso   1.000  C
  C102     1.0000 0.57180  0.86620  0.86620  Biso   1.000  C
  C103     1.0000 0.86590  0.86590  0.69780  Biso   1.000  C
  C104     1.0000 0.86620  0.86620  0.57180  Biso   1.000  C
  C105     1.0000 0.86590  0.69780  0.86590  Biso   1.000  C
  C106     1.0000 0.86620  0.57180  0.86620  Biso   1.000  C
  O1       1.0000 0.00000  0.00000  0.00000  Biso   1.000  O
  O2       1.0000 0.82869  0.17188  0.00000  Biso   1.000  O
  O3       1.0000 0.00114  0.17188  0.00000  Biso   1.000  O
  O4       1.0000 0.00014  0.17145  0.82826  Biso   1.000  O
  O5       1.0000 0.59570  0.58218  0.40894  Biso   1.000  O
  O6       1.0000 0.41144  0.76372  0.40894  Biso   1.000  O
  O7       1.0000 0.41211  0.58014  0.59116  Biso   1.000  O
  O8       1.0000 0.41687  0.58218  0.40894  Biso   1.000  O
  O9       1.0000 0.77248  0.73014  0.24824  Biso   1.000  O
  O10      1.0000 0.55727  0.94608  0.24824  Biso   1.000  O
  O11      1.0000 0.25074  0.41976  0.77377  Biso   1.000  O
  O12      1.0000 0.24949  0.41922  0.55801  Biso   1.000  O
  O13      1.0000 0.77707  0.42095  0.24824  Biso   1.000  O
  O14      1.0000 0.56042  0.42095  0.24824  Biso   1.000  O
  O15      1.0000 0.24633  0.94436  0.55801  Biso   1.000  O
  O16      1.0000 0.24616  0.72896  0.77377  Biso   1.000  O
  O17      1.0000 0.77305  0.41922  0.55801  Biso   1.000  O
  O18      1.0000 0.55766  0.41976  0.77377  Biso   1.000  O
  O19      1.0000 0.24892  0.73014  0.24824  Biso   1.000  O
  O20      1.0000 0.25035  0.94608  0.24824  Biso   1.000  O
  O21      1.0000 0.78847  0.84459  0.18322  Biso   1.000  O
  O22      1.0000 0.74625  0.79161  0.23072  Biso   1.000  O
  O23      1.0000 0.67197  0.96147  0.18322  Biso   1.000  O
  O24      1.0000 0.61870  0.91959  0.23072  Biso   1.000  O
  O25      1.0000 0.18511  0.35472  0.78931  Biso   1.000  O
  O26      1.0000 0.23288  0.40216  0.74734  Biso   1.000  O
  O27      1.0000 0.18443  0.35443  0.67252  Biso   1.000  O
  O28      1.0000 0.23214  0.40184  0.61947  Biso   1.000  O
  O29      1.0000 0.79186  0.35571  0.18322  Biso   1.000  O
  O30      1.0000 0.75032  0.40337  0.23072  Biso   1.000  O
  O31      1.0000 0.67459  0.35571  0.18322  Biso   1.000  O
  O32      1.0000 0.62192  0.40337  0.23072  Biso   1.000  O
  O33      1.0000 0.18181  0.96019  0.67252  Biso   1.000  O
  O34      1.0000 0.22893  0.91806  0.61947  Biso   1.000  O
  O35      1.0000 0.18171  0.84360  0.78931  Biso   1.000  O
  O36      1.0000 0.22882  0.79040  0.74734  Biso   1.000  O
  O37      1.0000 0.78889  0.35443  0.67252  Biso   1.000  O
  O38      1.0000 0.74676  0.40184  0.61947  Biso   1.000  O
  O39      1.0000 0.67230  0.35472  0.78931  Biso   1.000  O
  O40      1.0000 0.61910  0.40216  0.74734  Biso   1.000  O
  O41      1.0000 0.18401  0.84459  0.18322  Biso   1.000  O
  O42      1.0000 0.23163  0.79161  0.23072  Biso   1.000  O
  O43      1.0000 0.18478  0.96147  0.18322  Biso   1.000  O
  O44      1.0000 0.23248  0.91959  0.23072  Biso   1.000  O
  O45      1.0000 0.76344  0.93603  0.15016  Biso   1.000  O
  O46      1.0000 0.65980  0.83307  0.25329  Biso   1.000  O
  O47      1.0000 0.59873  0.77241  0.31406  Biso   1.000  O
  O48      1.0000 0.81994  0.99215  0.09394  Biso   1.000  O
  O49      1.0000 0.15155  0.32157  0.76397  Biso   1.000  O
  O50      1.0000 0.25519  0.42453  0.66084  Biso   1.000  O
  O51      1.0000 0.31626  0.48520  0.60007  Biso   1.000  O
  O52      1.0000 0.09505  0.26545  0.82019  Biso   1.000  O
  O53      1.0000 0.76601  0.32254  0.15016  Biso   1.000  O
  O54      1.0000 0.66374  0.42601  0.25329  Biso   1.000  O
  O55      1.0000 0.60348  0.48698  0.31406  Biso   1.000  O
  O56      1.0000 0.82176  0.26614  0.09394  Biso   1.000  O
  O57      1.0000 0.14898  0.93506  0.76397  Biso   1.000  O
  O58      1.0000 0.25125  0.83159  0.66084  Biso   1.000  O
  O59      1.0000 0.31151  0.77062  0.60007  Biso   1.000  O
  O60      1.0000 0.09323  0.99147  0.82019  Biso   1.000  O
  O61      1.0000 0.76376  0.32157  0.76397  Biso   1.000  O
  O62      1.0000 0.66029  0.42453  0.66084  Biso   1.000  O
  O63      1.0000 0.59932  0.48520  0.60007  Biso   1.000  O
  O64      1.0000 0.82016  0.26545  0.82019  Biso   1.000  O
  O65      1.0000 0.15123  0.93603  0.15016  Biso   1.000  O
  O66      1.0000 0.25470  0.83307  0.25329  Biso   1.000  O
  O67      1.0000 0.31567  0.77241  0.31406  Biso   1.000  O
  O68      1.0000 0.09483  0.99215  0.09394  Biso   1.000  O
  O69      1.0000 0.63725  0.68569  0.33801  Biso   1.000  O
  O70      1.0000 0.89888  0.95545  0.07276  Biso   1.000  O
  O71      1.0000 0.51207  0.81130  0.33801  Biso   1.000  O
  O72      1.0000 0.78357  0.07114  0.07276  Biso   1.000  O
  O73      1.0000 0.34069  0.50927  0.63887  Biso   1.000  O
  O74      1.0000 0.07410  0.24445  0.89917  Biso   1.000  O
  O75      1.0000 0.33996  0.50895  0.51338  Biso   1.000  O
  O76      1.0000 0.07343  0.24416  0.78357  Biso   1.000  O
  O77      1.0000 0.64273  0.51101  0.33801  Biso   1.000  O
  O78      1.0000 0.90080  0.24489  0.07276  Biso   1.000  O
  O79      1.0000 0.51672  0.51101  0.33801  Biso   1.000  O
  O80      1.0000 0.78472  0.24489  0.07276  Biso   1.000  O
  O81      1.0000 0.33532  0.80923  0.51338  Biso   1.000  O
  O82      1.0000 0.07228  0.07042  0.78357  Biso   1.000  O
  O83      1.0000 0.33521  0.68395  0.63887  Biso   1.000  O
  O84      1.0000 0.07218  0.95501  0.89917  Biso   1.000  O
  O85      1.0000 0.63793  0.50895  0.51338  Biso   1.000  O
  O86      1.0000 0.89912  0.24416  0.78357  Biso   1.000  O
  O87      1.0000 0.51265  0.50927  0.63887  Biso   1.000  O
  O88      1.0000 0.78371  0.24445  0.89917  Biso   1.000  O
  O89      1.0000 0.33928  0.68569  0.33801  Biso   1.000  O
  O90      1.0000 0.07319  0.95545  0.07276  Biso   1.000  O
  O91      1.0000 0.34012  0.81130  0.33801  Biso   1.000  O
  O92      1.0000 0.07396  0.07114  0.07276  Biso   1.000  O
  O93      1.0000 0.45442  0.63229  0.46221  Biso   1.000  O
