data_image0
_cell_length_a       18.3149
_cell_length_b       18.3149
_cell_length_c       18.3149
_cell_angle_alpha    60.3295
_cell_angle_beta     60.3295
_cell_angle_gamma    60.3295

_symmetry_space_group_name_H-M    "P 1"
_symmetry_int_tables_number       1

loop_
  _symmetry_equiv_pos_as_xyz
  'x, y, z'

loop_
  _atom_site_label
  _atom_site_occupancy
  _atom_site_fract_x
  _atom_site_fract_y
  _atom_site_fract_z
  _atom_site_thermal_displace_type
  _atom_site_B_iso_or_equiv
  _atom_site_type_symbol
  C1       1.0000 0.20609  0.20609  0.20609  Biso   1.000  C
  C2       1.0000 0.79391  0.79391  0.79391  Biso   1.000  C
  C3       1.0000 0.20677  0.37952  0.20677  Biso   1.000  C
  C4       1.0000 0.20677  0.20677  0.37952  Biso   1.000  C
  C5       1.0000 0.37952  0.20677  0.20677  Biso   1.000  C
  C6       1.0000 0.62048  0.79323  0.79323  Biso   1.000  C
  C7       1.0000 0.79323  0.79323  0.62048  Biso   1.000  C
  C8       1.0000 0.79323  0.62048  0.79323  Biso   1.000  C
  C9       1.0000 0.04260  0.34350  0.56530  Biso   1.000  C
  C10      1.0000 0.56530  0.04260  0.34350  Biso   1.000  C
  C11      1.0000 0.34350  0.56530  0.04260  Biso   1.000  C
  C12      1.0000 0.65650  0.95740  0.43470  Biso   1.000  C
  C13      1.0000 0.95740  0.43470  0.65650  Biso   1.000  C
  C14      1.0000 0.43470  0.65650  0.95740  Biso   1.000  C
  C15      1.0000 0.95740  0.65650  0.43470  Biso   1.000  C
  C16      1.0000 0.43470  0.95740  0.65650  Biso   1.000  C
  C17      1.0000 0.65650  0.43470  0.95740  Biso   1.000  C
  C18      1.0000 0.34350  0.04260  0.56530  Biso   1.000  C
  C19      1.0000 0.04260  0.56530  0.34350  Biso   1.000  C
  C20      1.0000 0.56530  0.34350  0.04260  Biso   1.000  C
  C21      1.0000 0.04880  0.55860  0.04880  Biso   1.000  C
  C22      1.0000 0.04170  0.34450  0.04170  Biso   1.000  C
  C23      1.0000 0.04880  0.04880  0.55860  Biso   1.000  C
  C24      1.0000 0.04170  0.04170  0.34450  Biso   1.000  C
  C25      1.0000 0.55860  0.04880  0.04880  Biso   1.000  C
  C26      1.0000 0.34450  0.04170  0.04170  Biso   1.000  C
  C27      1.0000 0.44140  0.95120  0.95120  Biso   1.000  C
  C28      1.0000 0.65550  0.95830  0.95830  Biso   1.000  C
  C29      1.0000 0.95120  0.95120  0.44140  Biso   1.000  C
  C30      1.0000 0.95830  0.95830  0.65550  Biso   1.000  C
  C31      1.0000 0.95120  0.44140  0.95120  Biso   1.000  C
  C32      1.0000 0.95830  0.65550  0.95830  Biso   1.000  C
  C33      1.0000 0.02770  0.40510  0.53870  Biso   1.000  C
  C34      1.0000 0.53870  0.02770  0.40510  Biso   1.000  C
  C35      1.0000 0.40510  0.53870  0.02770  Biso   1.000  C
  C36      1.0000 0.59490  0.97230  0.46130  Biso   1.000  C
  C37      1.0000 0.97230  0.46130  0.59490  Biso   1.000  C
  C38      1.0000 0.46130  0.59490  0.97230  Biso   1.000  C
  C39      1.0000 0.97230  0.59490  0.46130  Biso   1.000  C
  C40      1.0000 0.46130  0.97230  0.59490  Biso   1.000  C
  C41      1.0000 0.59490  0.46130  0.97230  Biso   1.000  C
  C42      1.0000 0.40510  0.02770  0.53870  Biso   1.000  C
  C43      1.0000 0.02770  0.53870  0.40510  Biso   1.000  C
  C44      1.0000 0.53870  0.40510  0.02770  Biso   1.000  C
  C45      1.0000 0.11130  0.39010  0.11130  Biso   1.000  C
  C46      1.0000 0.05390  0.44400  0.05390  Biso   1.000  C
  C47      1.0000 0.02940  0.53530  0.02940  Biso   1.000  C
  C48      1.0000 0.02520  0.40600  0.02520  Biso   1.000  C
  C49      1.0000 0.11130  0.11130  0.39010  Biso   1.000  C
  C50      1.0000 0.05390  0.05390  0.44400  Biso   1.000  C
  C51      1.0000 0.02940  0.02940  0.53530  Biso   1.000  C
  C52      1.0000 0.02520  0.02520  0.40600  Biso   1.000  C
  C53      1.0000 0.39010  0.11130  0.11130  Biso   1.000  C
  C54      1.0000 0.44400  0.05390  0.05390  Biso   1.000  C
  C55      1.0000 0.53530  0.02940  0.02940  Biso   1.000  C
  C56      1.0000 0.40600  0.02520  0.02520  Biso   1.000  C
  C57      1.0000 0.60990  0.88870  0.88870  Biso   1.000  C
  C58      1.0000 0.55600  0.94610  0.94610  Biso   1.000  C
  C59      1.0000 0.46470  0.97060  0.97060  Biso   1.000  C
  C60      1.0000 0.59400  0.97480  0.97480  Biso   1.000  C
  C61      1.0000 0.88870  0.88870  0.60990  Biso   1.000  C
  C62      1.0000 0.94610  0.94610  0.55600  Biso   1.000  C
  C63      1.0000 0.97060  0.97060  0.46470  Biso   1.000  C
  C64      1.0000 0.97480  0.97480  0.59400  Biso   1.000  C
  C65      1.0000 0.88870  0.60990  0.88870  Biso   1.000  C
  C66      1.0000 0.94610  0.55600  0.94610  Biso   1.000  C
  C67      1.0000 0.97060  0.46470  0.97060  Biso   1.000  C
  C68      1.0000 0.97480  0.59400  0.97480  Biso   1.000  C
  C69      1.0000 0.11170  0.38940  0.38940  Biso   1.000  C
  C70      1.0000 0.05990  0.44245  0.44245  Biso   1.000  C
  C71      1.0000 0.38940  0.11170  0.38940  Biso   1.000  C
  C72      1.0000 0.44245  0.05990  0.44245  Biso   1.000  C
  C73      1.0000 0.38940  0.38940  0.11170  Biso   1.000  C
  C74      1.0000 0.44245  0.44245  0.05990  Biso   1.000  C
  C75      1.0000 0.61060  0.88830  0.61060  Biso   1.000  C
  C76      1.0000 0.55755  0.94010  0.55755  Biso   1.000  C
  C77      1.0000 0.88830  0.61060  0.61060  Biso   1.000  C
  C78      1.0000 0.94010  0.55755  0.55755  Biso   1.000  C
  C79      1.0000 0.61060  0.61060  0.88830  Biso   1.000  C
  C80      1.0000 0.55755  0.55755  0.94010  Biso   1.000  C
  C81      1.0000 0.13529  0.42759  0.30119  Biso   1.000  C
  C82      1.0000 0.30119  0.13529  0.42759  Biso   1.000  C
  C83      1.0000 0.42759  0.30119  0.13529  Biso   1.000  C
  C84      1.0000 0.57241  0.86471  0.69881  Biso   1.000  C
  C85      1.0000 0.86471  0.69881  0.57241  Biso   1.000  C
  C86      1.0000 0.69881  0.57241  0.86471  Biso   1.000  C
  C87      1.0000 0.86471  0.57241  0.69881  Biso   1.000  C
  C88      1.0000 0.69881  0.86471  0.57241  Biso   1.000  C
  C89      1.0000 0.57241  0.69881  0.86471  Biso   1.000  C
  C90      1.0000 0.42759  0.13529  0.30119  Biso   1.000  C
  C91      1.0000 0.13529  0.30119  0.42759  Biso   1.000  C
  C92      1.0000 0.30119  0.42759  0.13529  Biso   1.000  C
  C93      1.0000 0.25153  0.25153  0.25153  Biso   1.000  C
  C94      1.0000 0.74847  0.74847  0.74847  Biso   1.000  C
  C95      1.0000 0.13410  0.30220  0.13410  Biso   1.000  C
  C96      1.0000 0.13380  0.42820  0.13380  Biso   1.000  C
  C97      1.0000 0.13410  0.13410  0.30220  Biso   1.000  C
  C98      1.0000 0.13380  0.13380  0.42820  Biso   1.000  C
  C99      1.0000 0.30220  0.13410  0.13410  Biso   1.000  C
  C100     1.0000 0.42820  0.13380  0.13380  Biso   1.000  C
  C101     1.0000 0.69780  0.86590  0.86590  Biso   1.000  C
  C102     1.0000 0.57180  0.86620  0.86620  Biso   1.000  C
  C103     1.0000 0.86590  0.86590  0.69780  Biso   1.000  C
  C104     1.0000 0.86620  0.86620  0.57180  Biso   1.000  C
  C105     1.0000 0.86590  0.69780  0.86590  Biso   1.000  C
  C106     1.0000 0.86620  0.57180  0.86620  Biso   1.000  C
  O1       1.0000 0.00000  0.00000  0.00000  Biso   1.000  O
  O2       1.0000 0.00474  0.00204  0.81478  Biso   1.000  O
  O3       1.0000 0.00542  0.81546  0.00000  Biso   1.000  O
  O4       1.0000 0.81815  0.00000  0.00000  Biso   1.000  O
  O5       1.0000 0.41516  0.40919  0.57819  Biso   1.000  O
  O6       1.0000 0.41416  0.40876  0.40740  Biso   1.000  O
  O7       1.0000 0.58566  0.40876  0.40740  Biso   1.000  O
  O8       1.0000 0.41530  0.57969  0.40740  Biso   1.000  O
  O9       1.0000 0.25246  0.24749  0.76007  Biso   1.000  O
  O10      1.0000 0.25123  0.24697  0.54955  Biso   1.000  O
  O11      1.0000 0.76830  0.55062  0.24539  Biso   1.000  O
  O12      1.0000 0.55830  0.76132  0.24539  Biso   1.000  O
  O13      1.0000 0.25465  0.76208  0.54955  Biso   1.000  O
  O14      1.0000 0.25448  0.55190  0.76007  Biso   1.000  O
  O15      1.0000 0.76627  0.24620  0.24539  Biso   1.000  O
  O16      1.0000 0.55488  0.24620  0.24539  Biso   1.000  O
  O17      1.0000 0.25148  0.55062  0.24539  Biso   1.000  O
  O18      1.0000 0.25288  0.76132  0.24539  Biso   1.000  O
  O19      1.0000 0.76804  0.24697  0.54955  Biso   1.000  O
  O20      1.0000 0.55787  0.24749  0.76007  Biso   1.000  O
  O21      1.0000 0.18555  0.18116  0.78363  Biso   1.000  O
  O22      1.0000 0.23565  0.23095  0.73159  Biso   1.000  O
  O23      1.0000 0.18482  0.18085  0.65865  Biso   1.000  O
  O24      1.0000 0.23495  0.23065  0.61095  Biso   1.000  O
  O25      1.0000 0.79229  0.65965  0.17906  Biso   1.000  O
  O26      1.0000 0.74001  0.61203  0.22893  Biso   1.000  O
  O27      1.0000 0.66763  0.78473  0.17906  Biso   1.000  O
  O28      1.0000 0.61967  0.73277  0.22893  Biso   1.000  O
  O29      1.0000 0.18884  0.78593  0.65865  Biso   1.000  O
  O30      1.0000 0.23829  0.73372  0.61095  Biso   1.000  O
  O31      1.0000 0.18873  0.66116  0.78363  Biso   1.000  O
  O32      1.0000 0.23819  0.61329  0.73159  Biso   1.000  O
  O33      1.0000 0.78910  0.17965  0.17906  Biso   1.000  O
  O34      1.0000 0.73747  0.22969  0.22893  Biso   1.000  O
  O35      1.0000 0.66361  0.17965  0.17906  Biso   1.000  O
  O36      1.0000 0.61633  0.22969  0.22893  Biso   1.000  O
  O37      1.0000 0.18522  0.65965  0.17906  Biso   1.000  O
  O38      1.0000 0.23527  0.61203  0.22893  Biso   1.000  O
  O39      1.0000 0.18605  0.78473  0.17906  Biso   1.000  O
  O40      1.0000 0.23607  0.73277  0.22893  Biso   1.000  O
  O41      1.0000 0.79189  0.18085  0.65865  Biso   1.000  O
  O42      1.0000 0.73969  0.23065  0.61095  Biso   1.000  O
  O43      1.0000 0.66713  0.18116  0.78363  Biso   1.000  O
  O44      1.0000 0.61926  0.23095  0.73159  Biso   1.000  O
  O45      1.0000 0.09752  0.09393  0.80837  Biso   1.000  O
  O46      1.0000 0.16092  0.15690  0.74529  Biso   1.000  O
  O47      1.0000 0.31732  0.31227  0.58966  Biso   1.000  O
  O48      1.0000 0.26730  0.26258  0.63943  Biso   1.000  O
  O49      1.0000 0.81762  0.80927  0.09183  Biso   1.000  O
  O50      1.0000 0.75423  0.74629  0.15491  Biso   1.000  O
  O51      1.0000 0.59783  0.59093  0.31054  Biso   1.000  O
  O52      1.0000 0.64785  0.64062  0.26076  Biso   1.000  O
  O53      1.0000 0.10229  0.81106  0.80837  Biso   1.000  O
  O54      1.0000 0.16484  0.74777  0.74529  Biso   1.000  O
  O55      1.0000 0.31917  0.59162  0.58966  Biso   1.000  O
  O56      1.0000 0.26981  0.64156  0.63943  Biso   1.000  O
  O57      1.0000 0.81286  0.09214  0.09183  Biso   1.000  O
  O58      1.0000 0.75030  0.15542  0.15491  Biso   1.000  O
  O59      1.0000 0.59597  0.31157  0.31054  Biso   1.000  O
  O60      1.0000 0.64533  0.26163  0.26076  Biso   1.000  O
  O61      1.0000 0.09812  0.80927  0.09183  Biso   1.000  O
  O62      1.0000 0.16140  0.74629  0.15491  Biso   1.000  O
  O63      1.0000 0.31755  0.59093  0.31054  Biso   1.000  O
  O64      1.0000 0.26761  0.64062  0.26076  Biso   1.000  O
  O65      1.0000 0.81703  0.09393  0.80837  Biso   1.000  O
  O66      1.0000 0.75374  0.15690  0.74529  Biso   1.000  O
  O67      1.0000 0.59759  0.31227  0.58966  Biso   1.000  O
  O68      1.0000 0.64753  0.26258  0.63943  Biso   1.000  O
  O69      1.0000 0.45757  0.45160  0.45010  Biso   1.000  O
  O70      1.0000 0.95658  0.95715  0.95729  Biso   1.000  O
  O71      1.0000 0.07608  0.07243  0.88997  Biso   1.000  O
  O72      1.0000 0.34233  0.33692  0.62465  Biso   1.000  O
  O73      1.0000 0.07538  0.07213  0.77012  Biso   1.000  O
  O74      1.0000 0.34163  0.33662  0.50559  Biso   1.000  O
  O75      1.0000 0.89918  0.77094  0.07015  Biso   1.000  O
  O76      1.0000 0.63254  0.50685  0.33508  Biso   1.000  O
  O77      1.0000 0.77963  0.89089  0.07015  Biso   1.000  O
  O78      1.0000 0.51378  0.62601  0.33508  Biso   1.000  O
  O79      1.0000 0.08083  0.89264  0.77012  Biso   1.000  O
  O80      1.0000 0.34356  0.62643  0.50559  Biso   1.000  O
  O81      1.0000 0.08073  0.77299  0.88997  Biso   1.000  O
  O82      1.0000 0.34346  0.50757  0.62465  Biso   1.000  O
  O83      1.0000 0.89453  0.07038  0.07015  Biso   1.000  O
  O84      1.0000 0.63141  0.33619  0.33508  Biso   1.000  O
  O85      1.0000 0.77419  0.07038  0.07015  Biso   1.000  O
  O86      1.0000 0.51186  0.33619  0.33508  Biso   1.000  O
  O87      1.0000 0.07596  0.77094  0.07015  Biso   1.000  O
  O88      1.0000 0.34177  0.50685  0.33508  Biso   1.000  O
  O89      1.0000 0.07676  0.89089  0.07015  Biso   1.000  O
  O90      1.0000 0.34256  0.62601  0.33508  Biso   1.000  O
  O91      1.0000 0.89860  0.07213  0.77012  Biso   1.000  O
  O92      1.0000 0.63240  0.33662  0.50559  Biso   1.000  O
  O93      1.0000 0.77896  0.07243  0.88997  Biso   1.000  O
