data_image0
_cell_length_a       18.3149
_cell_length_b       18.3149
_cell_length_c       18.3149
_cell_angle_alpha    60.3295
_cell_angle_beta     60.3295
_cell_angle_gamma    60.3295

_symmetry_space_group_name_H-M    "P 1"
_symmetry_int_tables_number       1

loop_
  _symmetry_equiv_pos_as_xyz
  'x, y, z'

loop_
  _atom_site_label
  _atom_site_occupancy
  _atom_site_fract_x
  _atom_site_fract_y
  _atom_site_fract_z
  _atom_site_thermal_displace_type
  _atom_site_B_iso_or_equiv
  _atom_site_type_symbol
  C1       1.0000 0.20609  0.20609  0.20609  Biso   1.000  C
  C2       1.0000 0.79391  0.79391  0.79391  Biso   1.000  C
  C3       1.0000 0.20677  0.37952  0.20677  Biso   1.000  C
  C4       1.0000 0.20677  0.20677  0.37952  Biso   1.000  C
  C5       1.0000 0.37952  0.20677  0.20677  Biso   1.000  C
  C6       1.0000 0.62048  0.79323  0.79323  Biso   1.000  C
  C7       1.0000 0.79323  0.79323  0.62048  Biso   1.000  C
  C8       1.0000 0.79323  0.62048  0.79323  Biso   1.000  C
  C9       1.0000 0.04260  0.34350  0.56530  Biso   1.000  C
  C10      1.0000 0.56530  0.04260  0.34350  Biso   1.000  C
  C11      1.0000 0.34350  0.56530  0.04260  Biso   1.000  C
  C12      1.0000 0.65650  0.95740  0.43470  Biso   1.000  C
  C13      1.0000 0.95740  0.43470  0.65650  Biso   1.000  C
  C14      1.0000 0.43470  0.65650  0.95740  Biso   1.000  C
  C15      1.0000 0.95740  0.65650  0.43470  Biso   1.000  C
  C16      1.0000 0.43470  0.95740  0.65650  Biso   1.000  C
  C17      1.0000 0.65650  0.43470  0.95740  Biso   1.000  C
  C18      1.0000 0.34350  0.04260  0.56530  Biso   1.000  C
  C19      1.0000 0.04260  0.56530  0.34350  Biso   1.000  C
  C20      1.0000 0.56530  0.34350  0.04260  Biso   1.000  C
  C21      1.0000 0.04880  0.55860  0.04880  Biso   1.000  C
  C22      1.0000 0.04170  0.34450  0.04170  Biso   1.000  C
  C23      1.0000 0.04880  0.04880  0.55860  Biso   1.000  C
  C24      1.0000 0.04170  0.04170  0.34450  Biso   1.000  C
  C25      1.0000 0.55860  0.04880  0.04880  Biso   1.000  C
  C26      1.0000 0.34450  0.04170  0.04170  Biso   1.000  C
  C27      1.0000 0.44140  0.95120  0.95120  Biso   1.000  C
  C28      1.0000 0.65550  0.95830  0.95830  Biso   1.000  C
  C29      1.0000 0.95120  0.95120  0.44140  Biso   1.000  C
  C30      1.0000 0.95830  0.95830  0.65550  Biso   1.000  C
  C31      1.0000 0.95120  0.44140  0.95120  Biso   1.000  C
  C32      1.0000 0.95830  0.65550  0.95830  Biso   1.000  C
  C33      1.0000 0.02770  0.40510  0.53870  Biso   1.000  C
  C34      1.0000 0.53870  0.02770  0.40510  Biso   1.000  C
  C35      1.0000 0.40510  0.53870  0.02770  Biso   1.000  C
  C36      1.0000 0.59490  0.97230  0.46130  Biso   1.000  C
  C37      1.0000 0.97230  0.46130  0.59490  Biso   1.000  C
  C38      1.0000 0.46130  0.59490  0.97230  Biso   1.000  C
  C39      1.0000 0.97230  0.59490  0.46130  Biso   1.000  C
  C40      1.0000 0.46130  0.97230  0.59490  Biso   1.000  C
  C41      1.0000 0.59490  0.46130  0.97230  Biso   1.000  C
  C42      1.0000 0.40510  0.02770  0.53870  Biso   1.000  C
  C43      1.0000 0.02770  0.53870  0.40510  Biso   1.000  C
  C44      1.0000 0.53870  0.40510  0.02770  Biso   1.000  C
  C45      1.0000 0.11130  0.39010  0.11130  Biso   1.000  C
  C46      1.0000 0.05390  0.44400  0.05390  Biso   1.000  C
  C47      1.0000 0.02940  0.53530  0.02940  Biso   1.000  C
  C48      1.0000 0.02520  0.40600  0.02520  Biso   1.000  C
  C49      1.0000 0.11130  0.11130  0.39010  Biso   1.000  C
  C50      1.0000 0.05390  0.05390  0.44400  Biso   1.000  C
  C51      1.0000 0.02940  0.02940  0.53530  Biso   1.000  C
  C52      1.0000 0.02520  0.02520  0.40600  Biso   1.000  C
  C53      1.0000 0.39010  0.11130  0.11130  Biso   1.000  C
  C54      1.0000 0.44400  0.05390  0.05390  Biso   1.000  C
  C55      1.0000 0.53530  0.02940  0.02940  Biso   1.000  C
  C56      1.0000 0.40600  0.02520  0.02520  Biso   1.000  C
  C57      1.0000 0.60990  0.88870  0.88870  Biso   1.000  C
  C58      1.0000 0.55600  0.94610  0.94610  Biso   1.000  C
  C59      1.0000 0.46470  0.97060  0.97060  Biso   1.000  C
  C60      1.0000 0.59400  0.97480  0.97480  Biso   1.000  C
  C61      1.0000 0.88870  0.88870  0.60990  Biso   1.000  C
  C62      1.0000 0.94610  0.94610  0.55600  Biso   1.000  C
  C63      1.0000 0.97060  0.97060  0.46470  Biso   1.000  C
  C64      1.0000 0.97480  0.97480  0.59400  Biso   1.000  C
  C65      1.0000 0.88870  0.60990  0.88870  Biso   1.000  C
  C66      1.0000 0.94610  0.55600  0.94610  Biso   1.000  C
  C67      1.0000 0.97060  0.46470  0.97060  Biso   1.000  C
  C68      1.0000 0.97480  0.59400  0.97480  Biso   1.000  C
  C69      1.0000 0.11170  0.38940  0.38940  Biso   1.000  C
  C70      1.0000 0.05990  0.44245  0.44245  Biso   1.000  C
  C71      1.0000 0.38940  0.11170  0.38940  Biso   1.000  C
  C72      1.0000 0.44245  0.05990  0.44245  Biso   1.000  C
  C73      1.0000 0.38940  0.38940  0.11170  Biso   1.000  C
  C74      1.0000 0.44245  0.44245  0.05990  Biso   1.000  C
  C75      1.0000 0.61060  0.88830  0.61060  Biso   1.000  C
  C76      1.0000 0.55755  0.94010  0.55755  Biso   1.000  C
  C77      1.0000 0.88830  0.61060  0.61060  Biso   1.000  C
  C78      1.0000 0.94010  0.55755  0.55755  Biso   1.000  C
  C79      1.0000 0.61060  0.61060  0.88830  Biso   1.000  C
  C80      1.0000 0.55755  0.55755  0.94010  Biso   1.000  C
  C81      1.0000 0.13529  0.42759  0.30119  Biso   1.000  C
  C82      1.0000 0.30119  0.13529  0.42759  Biso   1.000  C
  C83      1.0000 0.42759  0.30119  0.13529  Biso   1.000  C
  C84      1.0000 0.57241  0.86471  0.69881  Biso   1.000  C
  C85      1.0000 0.86471  0.69881  0.57241  Biso   1.000  C
  C86      1.0000 0.69881  0.57241  0.86471  Biso   1.000  C
  C87      1.0000 0.86471  0.57241  0.69881  Biso   1.000  C
  C88      1.0000 0.69881  0.86471  0.57241  Biso   1.000  C
  C89      1.0000 0.57241  0.69881  0.86471  Biso   1.000  C
  C90      1.0000 0.42759  0.13529  0.30119  Biso   1.000  C
  C91      1.0000 0.13529  0.30119  0.42759  Biso   1.000  C
  C92      1.0000 0.30119  0.42759  0.13529  Biso   1.000  C
  C93      1.0000 0.25153  0.25153  0.25153  Biso   1.000  C
  C94      1.0000 0.74847  0.74847  0.74847  Biso   1.000  C
  C95      1.0000 0.13410  0.30220  0.13410  Biso   1.000  C
  C96      1.0000 0.13380  0.42820  0.13380  Biso   1.000  C
  C97      1.0000 0.13410  0.13410  0.30220  Biso   1.000  C
  C98      1.0000 0.13380  0.13380  0.42820  Biso   1.000  C
  C99      1.0000 0.30220  0.13410  0.13410  Biso   1.000  C
  C100     1.0000 0.42820  0.13380  0.13380  Biso   1.000  C
  C101     1.0000 0.69780  0.86590  0.86590  Biso   1.000  C
  C102     1.0000 0.57180  0.86620  0.86620  Biso   1.000  C
  C103     1.0000 0.86590  0.86590  0.69780  Biso   1.000  C
  C104     1.0000 0.86620  0.86620  0.57180  Biso   1.000  C
  C105     1.0000 0.86590  0.69780  0.86590  Biso   1.000  C
  C106     1.0000 0.86620  0.57180  0.86620  Biso   1.000  C
  O1       1.0000 0.00000  0.00000  0.00000  Biso   1.000  O
  O2       1.0000 0.00101  0.00043  0.17283  Biso   1.000  O
  O3       1.0000 0.82746  0.00043  0.17283  Biso   1.000  O
  O4       1.0000 0.99986  0.82746  0.17283  Biso   1.000  O
  O5       1.0000 0.41965  0.41306  0.75647  Biso   1.000  O
  O6       1.0000 0.41866  0.41261  0.58364  Biso   1.000  O
  O7       1.0000 0.41980  0.58558  0.58365  Biso   1.000  O
  O8       1.0000 0.59220  0.41261  0.58364  Biso   1.000  O
  O9       1.0000 0.16701  0.16272  0.81072  Biso   1.000  O
  O10      1.0000 0.16250  0.16078  0.03544  Biso   1.000  O
  O11      1.0000 0.64157  0.86334  0.33338  Biso   1.000  O
  O12      1.0000 0.86824  0.63926  0.33338  Biso   1.000  O
  O13      1.0000 0.16568  0.63852  0.03544  Biso   1.000  O
  O14      1.0000 0.16503  0.86453  0.81072  Biso   1.000  O
  O15      1.0000 0.64355  0.16152  0.33338  Biso   1.000  O
  O16      1.0000 0.86506  0.16152  0.33338  Biso   1.000  O
  O17      1.0000 0.16226  0.86334  0.33338  Biso   1.000  O
  O18      1.0000 0.16741  0.63926  0.33338  Biso   1.000  O
  O19      1.0000 0.64182  0.16078  0.03544  Biso   1.000  O
  O20      1.0000 0.86784  0.16272  0.81072  Biso   1.000  O
  O21      1.0000 0.25265  0.25033  0.94574  Biso   1.000  O
  O22      1.0000 0.25716  0.25227  0.72102  Biso   1.000  O
  O23      1.0000 0.55143  0.77378  0.42308  Biso   1.000  O
  O24      1.0000 0.77809  0.54971  0.42308  Biso   1.000  O
  O25      1.0000 0.77784  0.25227  0.72102  Biso   1.000  O
  O26      1.0000 0.55182  0.25033  0.94574  Biso   1.000  O
  O27      1.0000 0.25225  0.77378  0.42308  Biso   1.000  O
  O28      1.0000 0.25741  0.54971  0.42308  Biso   1.000  O
  O29      1.0000 0.55460  0.25152  0.42308  Biso   1.000  O
  O30      1.0000 0.77611  0.25152  0.42308  Biso   1.000  O
  O31      1.0000 0.25399  0.77453  0.72102  Biso   1.000  O
  O32      1.0000 0.25463  0.54852  0.94574  Biso   1.000  O
  O33      1.0000 0.18550  0.18094  0.83742  Biso   1.000  O
  O34      1.0000 0.18047  0.17877  0.97247  Biso   1.000  O
  O35      1.0000 0.66806  0.80036  0.35152  Biso   1.000  O
  O36      1.0000 0.80529  0.66602  0.35152  Biso   1.000  O
  O37      1.0000 0.18370  0.66507  0.97247  Biso   1.000  O
  O38      1.0000 0.18299  0.80157  0.83742  Biso   1.000  O
  O39      1.0000 0.67058  0.17972  0.35152  Biso   1.000  O
  O40      1.0000 0.80206  0.17972  0.35152  Biso   1.000  O
  O41      1.0000 0.18016  0.80036  0.35152  Biso   1.000  O
  O42      1.0000 0.18591  0.66602  0.35152  Biso   1.000  O
  O43      1.0000 0.66838  0.17877  0.97247  Biso   1.000  O
  O44      1.0000 0.80489  0.18094  0.83742  Biso   1.000  O
  O45      1.0000 0.23416  0.23211  0.91905  Biso   1.000  O
  O46      1.0000 0.23919  0.23427  0.78399  Biso   1.000  O
  O47      1.0000 0.61437  0.74703  0.40494  Biso   1.000  O
  O48      1.0000 0.75160  0.61269  0.40494  Biso   1.000  O
  O49      1.0000 0.75129  0.23427  0.78399  Biso   1.000  O
  O50      1.0000 0.61478  0.23211  0.91905  Biso   1.000  O
  O51      1.0000 0.23376  0.74703  0.40494  Biso   1.000  O
  O52      1.0000 0.23951  0.61269  0.40494  Biso   1.000  O
  O53      1.0000 0.61760  0.23332  0.40494  Biso   1.000  O
  O54      1.0000 0.74908  0.23332  0.40494  Biso   1.000  O
  O55      1.0000 0.23596  0.74797  0.78399  Biso   1.000  O
  O56      1.0000 0.23668  0.61147  0.91905  Biso   1.000  O
  O57      1.0000 0.09550  0.09457  0.99190  Biso   1.000  O
  O58      1.0000 0.15321  0.15191  0.93447  Biso   1.000  O
  O59      1.0000 0.81868  0.81959  0.26734  Biso   1.000  O
  O60      1.0000 0.76097  0.76225  0.32477  Biso   1.000  O
  O61      1.0000 0.09366  0.81890  0.99190  Biso   1.000  O
  O62      1.0000 0.15062  0.76128  0.93447  Biso   1.000  O
  O63      1.0000 0.82051  0.09526  0.26734  Biso   1.000  O
  O64      1.0000 0.76356  0.15288  0.32477  Biso   1.000  O
  O65      1.0000 0.09527  0.81959  0.26734  Biso   1.000  O
  O66      1.0000 0.15289  0.76225  0.32477  Biso   1.000  O
  O67      1.0000 0.81891  0.09457  0.99190  Biso   1.000  O
  O68      1.0000 0.76129  0.15191  0.93447  Biso   1.000  O
  O69      1.0000 0.32417  0.31847  0.76457  Biso   1.000  O
  O70      1.0000 0.26645  0.26114  0.82200  Biso   1.000  O
  O71      1.0000 0.60098  0.59346  0.48913  Biso   1.000  O
  O72      1.0000 0.65870  0.65079  0.43170  Biso   1.000  O
  O73      1.0000 0.60075  0.31847  0.76457  Biso   1.000  O
  O74      1.0000 0.65837  0.26114  0.82200  Biso   1.000  O
  O75      1.0000 0.32440  0.59346  0.48913  Biso   1.000  O
  O76      1.0000 0.26678  0.65079  0.43170  Biso   1.000  O
  O77      1.0000 0.59915  0.31778  0.48913  Biso   1.000  O
  O78      1.0000 0.65610  0.26016  0.43170  Biso   1.000  O
  O79      1.0000 0.32600  0.59415  0.76457  Biso   1.000  O
  O80      1.0000 0.26905  0.65177  0.82200  Biso   1.000  O
  O81      1.0000 0.95709  0.95708  0.12962  Biso   1.000  O
  O82      1.0000 0.46257  0.45597  0.62685  Biso   1.000  O
  O83      1.0000 0.07287  0.07229  0.95346  Biso   1.000  O
  O84      1.0000 0.07357  0.07259  0.07466  Biso   1.000  O
  O85      1.0000 0.78051  0.90237  0.24517  Biso   1.000  O
  O86      1.0000 0.90141  0.78106  0.24517  Biso   1.000  O
  O87      1.0000 0.07163  0.78064  0.07466  Biso   1.000  O
  O88      1.0000 0.07173  0.90164  0.95346  Biso   1.000  O
  O89      1.0000 0.78164  0.07302  0.24517  Biso   1.000  O
  O90      1.0000 0.90335  0.07302  0.24517  Biso   1.000  O
  O91      1.0000 0.07343  0.90237  0.24517  Biso   1.000  O
  O92      1.0000 0.07263  0.78106  0.24517  Biso   1.000  O
  O93      1.0000 0.78065  0.07259  0.07466  Biso   1.000  O
  O94      1.0000 0.90165  0.07229  0.95346  Biso   1.000  O
  O95      1.0000 0.34680  0.34075  0.80301  Biso   1.000  O
  O96      1.0000 0.34609  0.34045  0.68180  Biso   1.000  O
  O97      1.0000 0.51825  0.63198  0.51129  Biso   1.000  O
  O98      1.0000 0.63915  0.51068  0.51129  Biso   1.000  O
  O99      1.0000 0.63901  0.34045  0.68180  Biso   1.000  O
  O100     1.0000 0.51801  0.34075  0.80301  Biso   1.000  O
  O101     1.0000 0.34704  0.63198  0.51129  Biso   1.000  O
  O102     1.0000 0.34623  0.51068  0.51129  Biso   1.000  O
  O103     1.0000 0.51632  0.34002  0.51129  Biso   1.000  O
  O104     1.0000 0.63802  0.34002  0.51129  Biso   1.000  O
  O105     1.0000 0.34803  0.63241  0.68180  Biso   1.000  O
