data_image0
_cell_length_a       18.3149
_cell_length_b       18.3149
_cell_length_c       18.3149
_cell_angle_alpha    60.3295
_cell_angle_beta     60.3295
_cell_angle_gamma    60.3295

_symmetry_space_group_name_H-M    "P 1"
_symmetry_int_tables_number       1

loop_
  _symmetry_equiv_pos_as_xyz
  'x, y, z'

loop_
  _atom_site_label
  _atom_site_occupancy
  _atom_site_fract_x
  _atom_site_fract_y
  _atom_site_fract_z
  _atom_site_thermal_displace_type
  _atom_site_B_iso_or_equiv
  _atom_site_type_symbol
  C1       1.0000 0.20609  0.20609  0.20609  Biso   1.000  C
  C2       1.0000 0.79391  0.79391  0.79391  Biso   1.000  C
  C3       1.0000 0.20677  0.37952  0.20677  Biso   1.000  C
  C4       1.0000 0.20677  0.20677  0.37952  Biso   1.000  C
  C5       1.0000 0.37952  0.20677  0.20677  Biso   1.000  C
  C6       1.0000 0.62048  0.79323  0.79323  Biso   1.000  C
  C7       1.0000 0.79323  0.79323  0.62048  Biso   1.000  C
  C8       1.0000 0.79323  0.62048  0.79323  Biso   1.000  C
  C9       1.0000 0.04260  0.34350  0.56530  Biso   1.000  C
  C10      1.0000 0.56530  0.04260  0.34350  Biso   1.000  C
  C11      1.0000 0.34350  0.56530  0.04260  Biso   1.000  C
  C12      1.0000 0.65650  0.95740  0.43470  Biso   1.000  C
  C13      1.0000 0.95740  0.43470  0.65650  Biso   1.000  C
  C14      1.0000 0.43470  0.65650  0.95740  Biso   1.000  C
  C15      1.0000 0.95740  0.65650  0.43470  Biso   1.000  C
  C16      1.0000 0.43470  0.95740  0.65650  Biso   1.000  C
  C17      1.0000 0.65650  0.43470  0.95740  Biso   1.000  C
  C18      1.0000 0.34350  0.04260  0.56530  Biso   1.000  C
  C19      1.0000 0.04260  0.56530  0.34350  Biso   1.000  C
  C20      1.0000 0.56530  0.34350  0.04260  Biso   1.000  C
  C21      1.0000 0.04880  0.55860  0.04880  Biso   1.000  C
  C22      1.0000 0.04170  0.34450  0.04170  Biso   1.000  C
  C23      1.0000 0.04880  0.04880  0.55860  Biso   1.000  C
  C24      1.0000 0.04170  0.04170  0.34450  Biso   1.000  C
  C25      1.0000 0.55860  0.04880  0.04880  Biso   1.000  C
  C26      1.0000 0.34450  0.04170  0.04170  Biso   1.000  C
  C27      1.0000 0.44140  0.95120  0.95120  Biso   1.000  C
  C28      1.0000 0.65550  0.95830  0.95830  Biso   1.000  C
  C29      1.0000 0.95120  0.95120  0.44140  Biso   1.000  C
  C30      1.0000 0.95830  0.95830  0.65550  Biso   1.000  C
  C31      1.0000 0.95120  0.44140  0.95120  Biso   1.000  C
  C32      1.0000 0.95830  0.65550  0.95830  Biso   1.000  C
  C33      1.0000 0.02770  0.40510  0.53870  Biso   1.000  C
  C34      1.0000 0.53870  0.02770  0.40510  Biso   1.000  C
  C35      1.0000 0.40510  0.53870  0.02770  Biso   1.000  C
  C36      1.0000 0.59490  0.97230  0.46130  Biso   1.000  C
  C37      1.0000 0.97230  0.46130  0.59490  Biso   1.000  C
  C38      1.0000 0.46130  0.59490  0.97230  Biso   1.000  C
  C39      1.0000 0.97230  0.59490  0.46130  Biso   1.000  C
  C40      1.0000 0.46130  0.97230  0.59490  Biso   1.000  C
  C41      1.0000 0.59490  0.46130  0.97230  Biso   1.000  C
  C42      1.0000 0.40510  0.02770  0.53870  Biso   1.000  C
  C43      1.0000 0.02770  0.53870  0.40510  Biso   1.000  C
  C44      1.0000 0.53870  0.40510  0.02770  Biso   1.000  C
  C45      1.0000 0.11130  0.39010  0.11130  Biso   1.000  C
  C46      1.0000 0.05390  0.44400  0.05390  Biso   1.000  C
  C47      1.0000 0.02940  0.53530  0.02940  Biso   1.000  C
  C48      1.0000 0.02520  0.40600  0.02520  Biso   1.000  C
  C49      1.0000 0.11130  0.11130  0.39010  Biso   1.000  C
  C50      1.0000 0.05390  0.05390  0.44400  Biso   1.000  C
  C51      1.0000 0.02940  0.02940  0.53530  Biso   1.000  C
  C52      1.0000 0.02520  0.02520  0.40600  Biso   1.000  C
  C53      1.0000 0.39010  0.11130  0.11130  Biso   1.000  C
  C54      1.0000 0.44400  0.05390  0.05390  Biso   1.000  C
  C55      1.0000 0.53530  0.02940  0.02940  Biso   1.000  C
  C56      1.0000 0.40600  0.02520  0.02520  Biso   1.000  C
  C57      1.0000 0.60990  0.88870  0.88870  Biso   1.000  C
  C58      1.0000 0.55600  0.94610  0.94610  Biso   1.000  C
  C59      1.0000 0.46470  0.97060  0.97060  Biso   1.000  C
  C60      1.0000 0.59400  0.97480  0.97480  Biso   1.000  C
  C61      1.0000 0.88870  0.88870  0.60990  Biso   1.000  C
  C62      1.0000 0.94610  0.94610  0.55600  Biso   1.000  C
  C63      1.0000 0.97060  0.97060  0.46470  Biso   1.000  C
  C64      1.0000 0.97480  0.97480  0.59400  Biso   1.000  C
  C65      1.0000 0.88870  0.60990  0.88870  Biso   1.000  C
  C66      1.0000 0.94610  0.55600  0.94610  Biso   1.000  C
  C67      1.0000 0.97060  0.46470  0.97060  Biso   1.000  C
  C68      1.0000 0.97480  0.59400  0.97480  Biso   1.000  C
  C69      1.0000 0.11170  0.38940  0.38940  Biso   1.000  C
  C70      1.0000 0.05990  0.44245  0.44245  Biso   1.000  C
  C71      1.0000 0.38940  0.11170  0.38940  Biso   1.000  C
  C72      1.0000 0.44245  0.05990  0.44245  Biso   1.000  C
  C73      1.0000 0.38940  0.38940  0.11170  Biso   1.000  C
  C74      1.0000 0.44245  0.44245  0.05990  Biso   1.000  C
  C75      1.0000 0.61060  0.88830  0.61060  Biso   1.000  C
  C76      1.0000 0.55755  0.94010  0.55755  Biso   1.000  C
  C77      1.0000 0.88830  0.61060  0.61060  Biso   1.000  C
  C78      1.0000 0.94010  0.55755  0.55755  Biso   1.000  C
  C79      1.0000 0.61060  0.61060  0.88830  Biso   1.000  C
  C80      1.0000 0.55755  0.55755  0.94010  Biso   1.000  C
  C81      1.0000 0.13529  0.42759  0.30119  Biso   1.000  C
  C82      1.0000 0.30119  0.13529  0.42759  Biso   1.000  C
  C83      1.0000 0.42759  0.30119  0.13529  Biso   1.000  C
  C84      1.0000 0.57241  0.86471  0.69881  Biso   1.000  C
  C85      1.0000 0.86471  0.69881  0.57241  Biso   1.000  C
  C86      1.0000 0.69881  0.57241  0.86471  Biso   1.000  C
  C87      1.0000 0.86471  0.57241  0.69881  Biso   1.000  C
  C88      1.0000 0.69881  0.86471  0.57241  Biso   1.000  C
  C89      1.0000 0.57241  0.69881  0.86471  Biso   1.000  C
  C90      1.0000 0.42759  0.13529  0.30119  Biso   1.000  C
  C91      1.0000 0.13529  0.30119  0.42759  Biso   1.000  C
  C92      1.0000 0.30119  0.42759  0.13529  Biso   1.000  C
  C93      1.0000 0.25153  0.25153  0.25153  Biso   1.000  C
  C94      1.0000 0.74847  0.74847  0.74847  Biso   1.000  C
  C95      1.0000 0.13410  0.30220  0.13410  Biso   1.000  C
  C96      1.0000 0.13380  0.42820  0.13380  Biso   1.000  C
  C97      1.0000 0.13410  0.13410  0.30220  Biso   1.000  C
  C98      1.0000 0.13380  0.13380  0.42820  Biso   1.000  C
  C99      1.0000 0.30220  0.13410  0.13410  Biso   1.000  C
  C100     1.0000 0.42820  0.13380  0.13380  Biso   1.000  C
  C101     1.0000 0.69780  0.86590  0.86590  Biso   1.000  C
  C102     1.0000 0.57180  0.86620  0.86620  Biso   1.000  C
  C103     1.0000 0.86590  0.86590  0.69780  Biso   1.000  C
  C104     1.0000 0.86620  0.86620  0.57180  Biso   1.000  C
  C105     1.0000 0.86590  0.69780  0.86590  Biso   1.000  C
  C106     1.0000 0.86620  0.57180  0.86620  Biso   1.000  C
  O1       1.0000 0.00000  0.00000  0.00000  Biso   1.000  O
  O2       1.0000 0.00115  0.17307  0.00000  Biso   1.000  O
  O3       1.0000 0.82751  0.17307  0.00000  Biso   1.000  O
  O4       1.0000 0.00014  0.17264  0.82707  Biso   1.000  O
  O5       1.0000 0.40663  0.58686  0.41574  Biso   1.000  O
  O6       1.0000 0.40778  0.75993  0.41574  Biso   1.000  O
  O7       1.0000 0.58027  0.58686  0.41574  Biso   1.000  O
  O8       1.0000 0.40764  0.58730  0.58867  Biso   1.000  O
  O9       1.0000 0.86223  0.81563  0.16077  Biso   1.000  O
  O10      1.0000 0.16286  0.33363  0.86308  Biso   1.000  O
  O11      1.0000 0.64215  0.03644  0.16077  Biso   1.000  O
  O12      1.0000 0.16157  0.33308  0.64246  Biso   1.000  O
  O13      1.0000 0.64240  0.33363  0.86308  Biso   1.000  O
  O14      1.0000 0.16261  0.03644  0.16077  Biso   1.000  O
  O15      1.0000 0.86266  0.33308  0.64246  Biso   1.000  O
  O16      1.0000 0.16114  0.81563  0.16077  Biso   1.000  O
  O17      1.0000 0.15959  0.03515  0.64246  Biso   1.000  O
  O18      1.0000 0.86567  0.33438  0.16077  Biso   1.000  O
  O19      1.0000 0.15941  0.81489  0.86308  Biso   1.000  O
  O20      1.0000 0.64413  0.33438  0.16077  Biso   1.000  O
  O21      1.0000 0.54211  0.42556  0.25497  Biso   1.000  O
  O22      1.0000 0.24837  0.94504  0.55266  Biso   1.000  O
  O23      1.0000 0.76365  0.42556  0.25497  Biso   1.000  O
  O24      1.0000 0.24819  0.72479  0.77328  Biso   1.000  O
  O25      1.0000 0.76538  0.42630  0.55266  Biso   1.000  O
  O26      1.0000 0.24664  0.94430  0.25497  Biso   1.000  O
  O27      1.0000 0.54513  0.42685  0.77328  Biso   1.000  O
  O28      1.0000 0.24517  0.72349  0.25497  Biso   1.000  O
  O29      1.0000 0.24621  0.42685  0.77328  Biso   1.000  O
  O30      1.0000 0.54556  0.94430  0.25497  Biso   1.000  O
  O31      1.0000 0.24493  0.42630  0.55266  Biso   1.000  O
  O32      1.0000 0.76563  0.72349  0.25497  Biso   1.000  O
  O33      1.0000 0.79932  0.84214  0.17902  Biso   1.000  O
  O34      1.0000 0.18094  0.35174  0.80015  Biso   1.000  O
  O35      1.0000 0.66839  0.97350  0.17902  Biso   1.000  O
  O36      1.0000 0.18017  0.35141  0.66889  Biso   1.000  O
  O37      1.0000 0.66870  0.35174  0.80015  Biso   1.000  O
  O38      1.0000 0.18062  0.97350  0.17902  Biso   1.000  O
  O39      1.0000 0.79974  0.35141  0.66889  Biso   1.000  O
  O40      1.0000 0.17975  0.84214  0.17902  Biso   1.000  O
  O41      1.0000 0.17765  0.97223  0.66889  Biso   1.000  O
  O42      1.0000 0.80271  0.35269  0.17902  Biso   1.000  O
  O43      1.0000 0.17755  0.84119  0.80015  Biso   1.000  O
  O44      1.0000 0.67090  0.35269  0.17902  Biso   1.000  O
  O45      1.0000 0.60508  0.40725  0.23672  Biso   1.000  O
  O46      1.0000 0.23024  0.91875  0.61559  Biso   1.000  O
  O47      1.0000 0.73688  0.40725  0.23672  Biso   1.000  O
  O48      1.0000 0.23013  0.78771  0.74685  Biso   1.000  O
  O49      1.0000 0.73908  0.40820  0.61559  Biso   1.000  O
  O50      1.0000 0.22803  0.91780  0.23672  Biso   1.000  O
  O51      1.0000 0.60804  0.40852  0.74685  Biso   1.000  O
  O52      1.0000 0.22716  0.78643  0.23672  Biso   1.000  O
  O53      1.0000 0.22761  0.40852  0.74685  Biso   1.000  O
  O54      1.0000 0.60847  0.91780  0.23672  Biso   1.000  O
  O55      1.0000 0.22685  0.40820  0.61559  Biso   1.000  O
  O56      1.0000 0.73940  0.78643  0.23672  Biso   1.000  O
  O57      1.0000 0.81867  0.99208  0.09462  Biso   1.000  O
  O58      1.0000 0.76083  0.93462  0.15218  Biso   1.000  O
  O59      1.0000 0.09574  0.26732  0.81892  Biso   1.000  O
  O60      1.0000 0.15358  0.32478  0.76136  Biso   1.000  O
  O61      1.0000 0.81890  0.26732  0.81892  Biso   1.000  O
  O62      1.0000 0.76115  0.32478  0.76136  Biso   1.000  O
  O63      1.0000 0.09551  0.99208  0.09462  Biso   1.000  O
  O64      1.0000 0.15326  0.93462  0.15218  Biso   1.000  O
  O65      1.0000 0.09391  0.99139  0.81892  Biso   1.000  O
  O66      1.0000 0.15098  0.93364  0.76136  Biso   1.000  O
  O67      1.0000 0.82050  0.26801  0.09462  Biso   1.000  O
  O68      1.0000 0.76342  0.32575  0.15218  Biso   1.000  O
  O69      1.0000 0.58728  0.49193  0.32112  Biso   1.000  O
  O70      1.0000 0.64436  0.43418  0.26356  Biso   1.000  O
  O71      1.0000 0.31388  0.76855  0.59682  Biso   1.000  O
  O72      1.0000 0.25680  0.82629  0.65438  Biso   1.000  O
  O73      1.0000 0.58889  0.49262  0.59682  Biso   1.000  O
  O74      1.0000 0.64663  0.43516  0.65438  Biso   1.000  O
  O75      1.0000 0.31227  0.76786  0.32112  Biso   1.000  O
  O76      1.0000 0.25453  0.82532  0.26356  Biso   1.000  O
  O77      1.0000 0.31204  0.49262  0.59682  Biso   1.000  O
  O78      1.0000 0.25420  0.43516  0.65438  Biso   1.000  O
  O79      1.0000 0.58912  0.76786  0.32112  Biso   1.000  O
  O80      1.0000 0.64696  0.82532  0.26356  Biso   1.000  O
  O81      1.0000 0.95720  0.12970  0.95677  Biso   1.000  O
  O82      1.0000 0.45058  0.63024  0.45897  Biso   1.000  O
  O83      1.0000 0.90182  0.95296  0.07254  Biso   1.000  O
  O84      1.0000 0.07390  0.24542  0.90211  Biso   1.000  O
  O85      1.0000 0.77990  0.07528  0.07254  Biso   1.000  O
  O86      1.0000 0.07319  0.24512  0.77989  Biso   1.000  O
  O87      1.0000 0.78004  0.24542  0.90211  Biso   1.000  O
  O88      1.0000 0.07376  0.07528  0.07254  Biso   1.000  O
  O89      1.0000 0.90206  0.24512  0.77989  Biso   1.000  O
  O90      1.0000 0.07295  0.95296  0.07254  Biso   1.000  O
  O91      1.0000 0.07206  0.07455  0.77989  Biso   1.000  O
  O92      1.0000 0.90376  0.24585  0.07254  Biso   1.000  O
  O93      1.0000 0.07196  0.95253  0.90211  Biso   1.000  O
  O94      1.0000 0.78104  0.24585  0.07254  Biso   1.000  O
  O95      1.0000 0.50402  0.51408  0.34320  Biso   1.000  O
  O96      1.0000 0.33583  0.80740  0.51363  Biso   1.000  O
  O97      1.0000 0.62675  0.51408  0.34320  Biso   1.000  O
  O98      1.0000 0.33572  0.68538  0.63585  Biso   1.000  O
  O99      1.0000 0.62774  0.51451  0.51363  Biso   1.000  O
  O100     1.0000 0.33483  0.80697  0.34320  Biso   1.000  O
  O101     1.0000 0.50572  0.51481  0.63585  Biso   1.000  O
  O102     1.0000 0.33402  0.68465  0.34320  Biso   1.000  O
  O103     1.0000 0.33459  0.51481  0.63585  Biso   1.000  O
  O104     1.0000 0.50597  0.80697  0.34320  Biso   1.000  O
  O105     1.0000 0.33388  0.51451  0.51363  Biso   1.000  O
