data_image0
_cell_length_a       18.3149
_cell_length_b       18.3149
_cell_length_c       18.3149
_cell_angle_alpha    60.3295
_cell_angle_beta     60.3295
_cell_angle_gamma    60.3295

_symmetry_space_group_name_H-M    "P 1"
_symmetry_int_tables_number       1

loop_
  _symmetry_equiv_pos_as_xyz
  'x, y, z'

loop_
  _atom_site_label
  _atom_site_occupancy
  _atom_site_fract_x
  _atom_site_fract_y
  _atom_site_fract_z
  _atom_site_thermal_displace_type
  _atom_site_B_iso_or_equiv
  _atom_site_type_symbol
  C1       1.0000 0.20609  0.20609  0.20609  Biso   1.000  C
  C2       1.0000 0.79391  0.79391  0.79391  Biso   1.000  C
  C3       1.0000 0.20677  0.37952  0.20677  Biso   1.000  C
  C4       1.0000 0.20677  0.20677  0.37952  Biso   1.000  C
  C5       1.0000 0.37952  0.20677  0.20677  Biso   1.000  C
  C6       1.0000 0.62048  0.79323  0.79323  Biso   1.000  C
  C7       1.0000 0.79323  0.79323  0.62048  Biso   1.000  C
  C8       1.0000 0.79323  0.62048  0.79323  Biso   1.000  C
  C9       1.0000 0.04260  0.34350  0.56530  Biso   1.000  C
  C10      1.0000 0.56530  0.04260  0.34350  Biso   1.000  C
  C11      1.0000 0.34350  0.56530  0.04260  Biso   1.000  C
  C12      1.0000 0.65650  0.95740  0.43470  Biso   1.000  C
  C13      1.0000 0.95740  0.43470  0.65650  Biso   1.000  C
  C14      1.0000 0.43470  0.65650  0.95740  Biso   1.000  C
  C15      1.0000 0.95740  0.65650  0.43470  Biso   1.000  C
  C16      1.0000 0.43470  0.95740  0.65650  Biso   1.000  C
  C17      1.0000 0.65650  0.43470  0.95740  Biso   1.000  C
  C18      1.0000 0.34350  0.04260  0.56530  Biso   1.000  C
  C19      1.0000 0.04260  0.56530  0.34350  Biso   1.000  C
  C20      1.0000 0.56530  0.34350  0.04260  Biso   1.000  C
  C21      1.0000 0.04880  0.55860  0.04880  Biso   1.000  C
  C22      1.0000 0.04170  0.34450  0.04170  Biso   1.000  C
  C23      1.0000 0.04880  0.04880  0.55860  Biso   1.000  C
  C24      1.0000 0.04170  0.04170  0.34450  Biso   1.000  C
  C25      1.0000 0.55860  0.04880  0.04880  Biso   1.000  C
  C26      1.0000 0.34450  0.04170  0.04170  Biso   1.000  C
  C27      1.0000 0.44140  0.95120  0.95120  Biso   1.000  C
  C28      1.0000 0.65550  0.95830  0.95830  Biso   1.000  C
  C29      1.0000 0.95120  0.95120  0.44140  Biso   1.000  C
  C30      1.0000 0.95830  0.95830  0.65550  Biso   1.000  C
  C31      1.0000 0.95120  0.44140  0.95120  Biso   1.000  C
  C32      1.0000 0.95830  0.65550  0.95830  Biso   1.000  C
  C33      1.0000 0.02770  0.40510  0.53870  Biso   1.000  C
  C34      1.0000 0.53870  0.02770  0.40510  Biso   1.000  C
  C35      1.0000 0.40510  0.53870  0.02770  Biso   1.000  C
  C36      1.0000 0.59490  0.97230  0.46130  Biso   1.000  C
  C37      1.0000 0.97230  0.46130  0.59490  Biso   1.000  C
  C38      1.0000 0.46130  0.59490  0.97230  Biso   1.000  C
  C39      1.0000 0.97230  0.59490  0.46130  Biso   1.000  C
  C40      1.0000 0.46130  0.97230  0.59490  Biso   1.000  C
  C41      1.0000 0.59490  0.46130  0.97230  Biso   1.000  C
  C42      1.0000 0.40510  0.02770  0.53870  Biso   1.000  C
  C43      1.0000 0.02770  0.53870  0.40510  Biso   1.000  C
  C44      1.0000 0.53870  0.40510  0.02770  Biso   1.000  C
  C45      1.0000 0.11130  0.39010  0.11130  Biso   1.000  C
  C46      1.0000 0.05390  0.44400  0.05390  Biso   1.000  C
  C47      1.0000 0.02940  0.53530  0.02940  Biso   1.000  C
  C48      1.0000 0.02520  0.40600  0.02520  Biso   1.000  C
  C49      1.0000 0.11130  0.11130  0.39010  Biso   1.000  C
  C50      1.0000 0.05390  0.05390  0.44400  Biso   1.000  C
  C51      1.0000 0.02940  0.02940  0.53530  Biso   1.000  C
  C52      1.0000 0.02520  0.02520  0.40600  Biso   1.000  C
  C53      1.0000 0.39010  0.11130  0.11130  Biso   1.000  C
  C54      1.0000 0.44400  0.05390  0.05390  Biso   1.000  C
  C55      1.0000 0.53530  0.02940  0.02940  Biso   1.000  C
  C56      1.0000 0.40600  0.02520  0.02520  Biso   1.000  C
  C57      1.0000 0.60990  0.88870  0.88870  Biso   1.000  C
  C58      1.0000 0.55600  0.94610  0.94610  Biso   1.000  C
  C59      1.0000 0.46470  0.97060  0.97060  Biso   1.000  C
  C60      1.0000 0.59400  0.97480  0.97480  Biso   1.000  C
  C61      1.0000 0.88870  0.88870  0.60990  Biso   1.000  C
  C62      1.0000 0.94610  0.94610  0.55600  Biso   1.000  C
  C63      1.0000 0.97060  0.97060  0.46470  Biso   1.000  C
  C64      1.0000 0.97480  0.97480  0.59400  Biso   1.000  C
  C65      1.0000 0.88870  0.60990  0.88870  Biso   1.000  C
  C66      1.0000 0.94610  0.55600  0.94610  Biso   1.000  C
  C67      1.0000 0.97060  0.46470  0.97060  Biso   1.000  C
  C68      1.0000 0.97480  0.59400  0.97480  Biso   1.000  C
  C69      1.0000 0.11170  0.38940  0.38940  Biso   1.000  C
  C70      1.0000 0.05990  0.44245  0.44245  Biso   1.000  C
  C71      1.0000 0.38940  0.11170  0.38940  Biso   1.000  C
  C72      1.0000 0.44245  0.05990  0.44245  Biso   1.000  C
  C73      1.0000 0.38940  0.38940  0.11170  Biso   1.000  C
  C74      1.0000 0.44245  0.44245  0.05990  Biso   1.000  C
  C75      1.0000 0.61060  0.88830  0.61060  Biso   1.000  C
  C76      1.0000 0.55755  0.94010  0.55755  Biso   1.000  C
  C77      1.0000 0.88830  0.61060  0.61060  Biso   1.000  C
  C78      1.0000 0.94010  0.55755  0.55755  Biso   1.000  C
  C79      1.0000 0.61060  0.61060  0.88830  Biso   1.000  C
  C80      1.0000 0.55755  0.55755  0.94010  Biso   1.000  C
  C81      1.0000 0.13529  0.42759  0.30119  Biso   1.000  C
  C82      1.0000 0.30119  0.13529  0.42759  Biso   1.000  C
  C83      1.0000 0.42759  0.30119  0.13529  Biso   1.000  C
  C84      1.0000 0.57241  0.86471  0.69881  Biso   1.000  C
  C85      1.0000 0.86471  0.69881  0.57241  Biso   1.000  C
  C86      1.0000 0.69881  0.57241  0.86471  Biso   1.000  C
  C87      1.0000 0.86471  0.57241  0.69881  Biso   1.000  C
  C88      1.0000 0.69881  0.86471  0.57241  Biso   1.000  C
  C89      1.0000 0.57241  0.69881  0.86471  Biso   1.000  C
  C90      1.0000 0.42759  0.13529  0.30119  Biso   1.000  C
  C91      1.0000 0.13529  0.30119  0.42759  Biso   1.000  C
  C92      1.0000 0.30119  0.42759  0.13529  Biso   1.000  C
  C93      1.0000 0.25153  0.25153  0.25153  Biso   1.000  C
  C94      1.0000 0.74847  0.74847  0.74847  Biso   1.000  C
  C95      1.0000 0.13410  0.30220  0.13410  Biso   1.000  C
  C96      1.0000 0.13380  0.42820  0.13380  Biso   1.000  C
  C97      1.0000 0.13410  0.13410  0.30220  Biso   1.000  C
  C98      1.0000 0.13380  0.13380  0.42820  Biso   1.000  C
  C99      1.0000 0.30220  0.13410  0.13410  Biso   1.000  C
  C100     1.0000 0.42820  0.13380  0.13380  Biso   1.000  C
  C101     1.0000 0.69780  0.86590  0.86590  Biso   1.000  C
  C102     1.0000 0.57180  0.86620  0.86620  Biso   1.000  C
  C103     1.0000 0.86590  0.86590  0.69780  Biso   1.000  C
  C104     1.0000 0.86620  0.86620  0.57180  Biso   1.000  C
  C105     1.0000 0.86590  0.69780  0.86590  Biso   1.000  C
  C106     1.0000 0.86620  0.57180  0.86620  Biso   1.000  C
  O1       1.0000 0.57199  0.47404  0.46617  Biso   1.000  O
  O2       1.0000 0.40055  0.47447  0.63790  Biso   1.000  O
  O3       1.0000 0.40069  0.64591  0.46617  Biso   1.000  O
  O4       1.0000 0.39955  0.47404  0.46617  Biso   1.000  O
  O5       1.0000 0.79480  0.06507  0.05856  Biso   1.000  O
  O6       1.0000 0.96624  0.06464  0.88683  Biso   1.000  O
  O7       1.0000 0.96724  0.06507  0.05856  Biso   1.000  O
  O8       1.0000 0.96610  0.89320  0.05856  Biso   1.000  O
  O9       1.0000 0.75615  0.31505  0.60089  Biso   1.000  O
  O10      1.0000 0.52113  0.31313  0.83462  Biso   1.000  O
  O11      1.0000 0.22561  0.84157  0.30698  Biso   1.000  O
  O12      1.0000 0.23070  0.60847  0.30698  Biso   1.000  O
  O13      1.0000 0.22795  0.60729  0.83462  Biso   1.000  O
  O14      1.0000 0.22732  0.84230  0.60089  Biso   1.000  O
  O15      1.0000 0.75444  0.31432  0.30698  Biso   1.000  O
  O16      1.0000 0.52388  0.31432  0.30698  Biso   1.000  O
  O17      1.0000 0.52074  0.84157  0.30698  Biso   1.000  O
  O18      1.0000 0.75639  0.60847  0.30698  Biso   1.000  O
  O19      1.0000 0.22600  0.31313  0.83462  Biso   1.000  O
  O20      1.0000 0.23046  0.31505  0.60089  Biso   1.000  O
  O21      1.0000 0.61064  0.22406  0.92384  Biso   1.000  O
  O22      1.0000 0.84566  0.22598  0.69011  Biso   1.000  O
  O23      1.0000 0.13609  0.93064  0.21776  Biso   1.000  O
  O24      1.0000 0.14118  0.69754  0.21776  Biso   1.000  O
  O25      1.0000 0.14079  0.22598  0.69011  Biso   1.000  O
  O26      1.0000 0.13633  0.22406  0.92384  Biso   1.000  O
  O27      1.0000 0.61040  0.93064  0.21776  Biso   1.000  O
  O28      1.0000 0.84605  0.69754  0.21776  Biso   1.000  O
  O29      1.0000 0.84292  0.22480  0.21776  Biso   1.000  O
  O30      1.0000 0.61235  0.22480  0.21776  Biso   1.000  O
  O31      1.0000 0.13884  0.93182  0.69011  Biso   1.000  O
  O32      1.0000 0.13947  0.69681  0.92384  Biso   1.000  O
  O33      1.0000 0.72993  0.29654  0.66455  Biso   1.000  O
  O34      1.0000 0.58477  0.29440  0.80827  Biso   1.000  O
  O35      1.0000 0.20659  0.81515  0.28832  Biso   1.000  O
  O36      1.0000 0.21228  0.67214  0.28832  Biso   1.000  O
  O37      1.0000 0.20949  0.67094  0.80827  Biso   1.000  O
  O38      1.0000 0.20878  0.81609  0.66455  Biso   1.000  O
  O39      1.0000 0.72774  0.29560  0.28832  Biso   1.000  O
  O40      1.0000 0.58757  0.29560  0.28832  Biso   1.000  O
  O41      1.0000 0.58438  0.81515  0.28832  Biso   1.000  O
  O42      1.0000 0.73025  0.67214  0.28832  Biso   1.000  O
  O43      1.0000 0.20699  0.29440  0.80827  Biso   1.000  O
  O44      1.0000 0.21197  0.29654  0.66455  Biso   1.000  O
  O45      1.0000 0.63686  0.24257  0.86018  Biso   1.000  O
  O46      1.0000 0.78202  0.24471  0.71646  Biso   1.000  O
  O47      1.0000 0.15451  0.86697  0.23641  Biso   1.000  O
  O48      1.0000 0.16020  0.72396  0.23641  Biso   1.000  O
  O49      1.0000 0.15980  0.24471  0.71646  Biso   1.000  O
  O50      1.0000 0.15482  0.24257  0.86018  Biso   1.000  O
  O51      1.0000 0.63655  0.86697  0.23641  Biso   1.000  O
  O52      1.0000 0.78242  0.72396  0.23641  Biso   1.000  O
  O53      1.0000 0.77923  0.24351  0.23641  Biso   1.000  O
  O54      1.0000 0.63905  0.24351  0.23641  Biso   1.000  O
  O55      1.0000 0.15730  0.86818  0.71646  Biso   1.000  O
  O56      1.0000 0.15801  0.72302  0.86018  Biso   1.000  O
  O57      1.0000 0.58133  0.37967  0.64678  Biso   1.000  O
  O58      1.0000 0.63748  0.32380  0.70274  Biso   1.000  O
  O59      1.0000 0.30506  0.65457  0.37142  Biso   1.000  O
  O60      1.0000 0.24891  0.71043  0.31546  Biso   1.000  O
  O61      1.0000 0.30666  0.65525  0.64678  Biso   1.000  O
  O62      1.0000 0.25117  0.71140  0.70274  Biso   1.000  O
  O63      1.0000 0.57973  0.37898  0.37142  Biso   1.000  O
  O64      1.0000 0.63522  0.32283  0.31546  Biso   1.000  O
  O65      1.0000 0.58156  0.65457  0.37142  Biso   1.000  O
  O66      1.0000 0.63780  0.71043  0.31546  Biso   1.000  O
  O67      1.0000 0.30483  0.37967  0.64678  Biso   1.000  O
  O68      1.0000 0.24859  0.32380  0.70274  Biso   1.000  O
  O69      1.0000 0.78546  0.15945  0.87795  Biso   1.000  O
  O70      1.0000 0.72932  0.21531  0.82199  Biso   1.000  O
  O71      1.0000 0.06173  0.88455  0.15331  Biso   1.000  O
  O72      1.0000 0.11788  0.82868  0.20927  Biso   1.000  O
  O73      1.0000 0.06196  0.15945  0.87795  Biso   1.000  O
  O74      1.0000 0.11820  0.21531  0.82199  Biso   1.000  O
  O75      1.0000 0.78523  0.88455  0.15331  Biso   1.000  O
  O76      1.0000 0.72900  0.82868  0.20927  Biso   1.000  O
  O77      1.0000 0.78706  0.16013  0.15331  Biso   1.000  O
  O78      1.0000 0.73157  0.21628  0.20927  Biso   1.000  O
  O79      1.0000 0.06013  0.88386  0.87795  Biso   1.000  O
  O80      1.0000 0.11562  0.82771  0.82199  Biso   1.000  O
  O81      1.0000 0.44320  0.51712  0.50910  Biso   1.000  O
  O82      1.0000 0.92360  0.02200  0.01563  Biso   1.000  O
  O83      1.0000 0.62082  0.40257  0.56092  Biso   1.000  O
  O84      1.0000 0.49550  0.40288  0.68646  Biso   1.000  O
  O85      1.0000 0.32865  0.69433  0.39452  Biso   1.000  O
  O86      1.0000 0.32781  0.56869  0.39452  Biso   1.000  O
  O87      1.0000 0.32951  0.56942  0.68646  Biso   1.000  O
  O88      1.0000 0.32962  0.69475  0.56092  Biso   1.000  O
  O89      1.0000 0.61986  0.40215  0.39452  Biso   1.000  O
  O90      1.0000 0.49380  0.40215  0.39452  Biso   1.000  O
  O91      1.0000 0.49574  0.69433  0.39452  Biso   1.000  O
  O92      1.0000 0.62096  0.56869  0.39452  Biso   1.000  O
  O93      1.0000 0.32841  0.40288  0.68646  Biso   1.000  O
  O94      1.0000 0.32768  0.40257  0.56092  Biso   1.000  O
  O95      1.0000 0.74597  0.13655  0.96381  Biso   1.000  O
  O96      1.0000 0.87130  0.13623  0.83827  Biso   1.000  O
  O97      1.0000 0.03898  0.97042  0.13021  Biso   1.000  O
  O98      1.0000 0.03814  0.84478  0.13021  Biso   1.000  O
  O99      1.0000 0.03839  0.13623  0.83827  Biso   1.000  O
  O100     1.0000 0.03912  0.13655  0.96381  Biso   1.000  O
  O101     1.0000 0.74583  0.97042  0.13021  Biso   1.000  O
  O102     1.0000 0.87106  0.84478  0.13021  Biso   1.000  O
  O103     1.0000 0.87300  0.13696  0.13021  Biso   1.000  O
  O104     1.0000 0.74694  0.13696  0.13021  Biso   1.000  O
  O105     1.0000 0.03728  0.96969  0.83827  Biso   1.000  O
