data_image0
_cell_length_a       18.3149
_cell_length_b       18.3149
_cell_length_c       18.3149
_cell_angle_alpha    60.3295
_cell_angle_beta     60.3295
_cell_angle_gamma    60.3295

_symmetry_space_group_name_H-M    "P 1"
_symmetry_int_tables_number       1

loop_
  _symmetry_equiv_pos_as_xyz
  'x, y, z'

loop_
  _atom_site_label
  _atom_site_occupancy
  _atom_site_fract_x
  _atom_site_fract_y
  _atom_site_fract_z
  _atom_site_thermal_displace_type
  _atom_site_B_iso_or_equiv
  _atom_site_type_symbol
  C1       1.0000 0.20609  0.20609  0.20609  Biso   1.000  C
  C2       1.0000 0.79391  0.79391  0.79391  Biso   1.000  C
  C3       1.0000 0.20677  0.37952  0.20677  Biso   1.000  C
  C4       1.0000 0.20677  0.20677  0.37952  Biso   1.000  C
  C5       1.0000 0.37952  0.20677  0.20677  Biso   1.000  C
  C6       1.0000 0.62048  0.79323  0.79323  Biso   1.000  C
  C7       1.0000 0.79323  0.79323  0.62048  Biso   1.000  C
  C8       1.0000 0.79323  0.62048  0.79323  Biso   1.000  C
  C9       1.0000 0.04260  0.34350  0.56530  Biso   1.000  C
  C10      1.0000 0.56530  0.04260  0.34350  Biso   1.000  C
  C11      1.0000 0.34350  0.56530  0.04260  Biso   1.000  C
  C12      1.0000 0.65650  0.95740  0.43470  Biso   1.000  C
  C13      1.0000 0.95740  0.43470  0.65650  Biso   1.000  C
  C14      1.0000 0.43470  0.65650  0.95740  Biso   1.000  C
  C15      1.0000 0.95740  0.65650  0.43470  Biso   1.000  C
  C16      1.0000 0.43470  0.95740  0.65650  Biso   1.000  C
  C17      1.0000 0.65650  0.43470  0.95740  Biso   1.000  C
  C18      1.0000 0.34350  0.04260  0.56530  Biso   1.000  C
  C19      1.0000 0.04260  0.56530  0.34350  Biso   1.000  C
  C20      1.0000 0.56530  0.34350  0.04260  Biso   1.000  C
  C21      1.0000 0.04880  0.55860  0.04880  Biso   1.000  C
  C22      1.0000 0.04170  0.34450  0.04170  Biso   1.000  C
  C23      1.0000 0.04880  0.04880  0.55860  Biso   1.000  C
  C24      1.0000 0.04170  0.04170  0.34450  Biso   1.000  C
  C25      1.0000 0.55860  0.04880  0.04880  Biso   1.000  C
  C26      1.0000 0.34450  0.04170  0.04170  Biso   1.000  C
  C27      1.0000 0.44140  0.95120  0.95120  Biso   1.000  C
  C28      1.0000 0.65550  0.95830  0.95830  Biso   1.000  C
  C29      1.0000 0.95120  0.95120  0.44140  Biso   1.000  C
  C30      1.0000 0.95830  0.95830  0.65550  Biso   1.000  C
  C31      1.0000 0.95120  0.44140  0.95120  Biso   1.000  C
  C32      1.0000 0.95830  0.65550  0.95830  Biso   1.000  C
  C33      1.0000 0.02770  0.40510  0.53870  Biso   1.000  C
  C34      1.0000 0.53870  0.02770  0.40510  Biso   1.000  C
  C35      1.0000 0.40510  0.53870  0.02770  Biso   1.000  C
  C36      1.0000 0.59490  0.97230  0.46130  Biso   1.000  C
  C37      1.0000 0.97230  0.46130  0.59490  Biso   1.000  C
  C38      1.0000 0.46130  0.59490  0.97230  Biso   1.000  C
  C39      1.0000 0.97230  0.59490  0.46130  Biso   1.000  C
  C40      1.0000 0.46130  0.97230  0.59490  Biso   1.000  C
  C41      1.0000 0.59490  0.46130  0.97230  Biso   1.000  C
  C42      1.0000 0.40510  0.02770  0.53870  Biso   1.000  C
  C43      1.0000 0.02770  0.53870  0.40510  Biso   1.000  C
  C44      1.0000 0.53870  0.40510  0.02770  Biso   1.000  C
  C45      1.0000 0.11130  0.39010  0.11130  Biso   1.000  C
  C46      1.0000 0.05390  0.44400  0.05390  Biso   1.000  C
  C47      1.0000 0.02940  0.53530  0.02940  Biso   1.000  C
  C48      1.0000 0.02520  0.40600  0.02520  Biso   1.000  C
  C49      1.0000 0.11130  0.11130  0.39010  Biso   1.000  C
  C50      1.0000 0.05390  0.05390  0.44400  Biso   1.000  C
  C51      1.0000 0.02940  0.02940  0.53530  Biso   1.000  C
  C52      1.0000 0.02520  0.02520  0.40600  Biso   1.000  C
  C53      1.0000 0.39010  0.11130  0.11130  Biso   1.000  C
  C54      1.0000 0.44400  0.05390  0.05390  Biso   1.000  C
  C55      1.0000 0.53530  0.02940  0.02940  Biso   1.000  C
  C56      1.0000 0.40600  0.02520  0.02520  Biso   1.000  C
  C57      1.0000 0.60990  0.88870  0.88870  Biso   1.000  C
  C58      1.0000 0.55600  0.94610  0.94610  Biso   1.000  C
  C59      1.0000 0.46470  0.97060  0.97060  Biso   1.000  C
  C60      1.0000 0.59400  0.97480  0.97480  Biso   1.000  C
  C61      1.0000 0.88870  0.88870  0.60990  Biso   1.000  C
  C62      1.0000 0.94610  0.94610  0.55600  Biso   1.000  C
  C63      1.0000 0.97060  0.97060  0.46470  Biso   1.000  C
  C64      1.0000 0.97480  0.97480  0.59400  Biso   1.000  C
  C65      1.0000 0.88870  0.60990  0.88870  Biso   1.000  C
  C66      1.0000 0.94610  0.55600  0.94610  Biso   1.000  C
  C67      1.0000 0.97060  0.46470  0.97060  Biso   1.000  C
  C68      1.0000 0.97480  0.59400  0.97480  Biso   1.000  C
  C69      1.0000 0.11170  0.38940  0.38940  Biso   1.000  C
  C70      1.0000 0.05990  0.44245  0.44245  Biso   1.000  C
  C71      1.0000 0.38940  0.11170  0.38940  Biso   1.000  C
  C72      1.0000 0.44245  0.05990  0.44245  Biso   1.000  C
  C73      1.0000 0.38940  0.38940  0.11170  Biso   1.000  C
  C74      1.0000 0.44245  0.44245  0.05990  Biso   1.000  C
  C75      1.0000 0.61060  0.88830  0.61060  Biso   1.000  C
  C76      1.0000 0.55755  0.94010  0.55755  Biso   1.000  C
  C77      1.0000 0.88830  0.61060  0.61060  Biso   1.000  C
  C78      1.0000 0.94010  0.55755  0.55755  Biso   1.000  C
  C79      1.0000 0.61060  0.61060  0.88830  Biso   1.000  C
  C80      1.0000 0.55755  0.55755  0.94010  Biso   1.000  C
  C81      1.0000 0.13529  0.42759  0.30119  Biso   1.000  C
  C82      1.0000 0.30119  0.13529  0.42759  Biso   1.000  C
  C83      1.0000 0.42759  0.30119  0.13529  Biso   1.000  C
  C84      1.0000 0.57241  0.86471  0.69881  Biso   1.000  C
  C85      1.0000 0.86471  0.69881  0.57241  Biso   1.000  C
  C86      1.0000 0.69881  0.57241  0.86471  Biso   1.000  C
  C87      1.0000 0.86471  0.57241  0.69881  Biso   1.000  C
  C88      1.0000 0.69881  0.86471  0.57241  Biso   1.000  C
  C89      1.0000 0.57241  0.69881  0.86471  Biso   1.000  C
  C90      1.0000 0.42759  0.13529  0.30119  Biso   1.000  C
  C91      1.0000 0.13529  0.30119  0.42759  Biso   1.000  C
  C92      1.0000 0.30119  0.42759  0.13529  Biso   1.000  C
  C93      1.0000 0.25153  0.25153  0.25153  Biso   1.000  C
  C94      1.0000 0.74847  0.74847  0.74847  Biso   1.000  C
  C95      1.0000 0.13410  0.30220  0.13410  Biso   1.000  C
  C96      1.0000 0.13380  0.42820  0.13380  Biso   1.000  C
  C97      1.0000 0.13410  0.13410  0.30220  Biso   1.000  C
  C98      1.0000 0.13380  0.13380  0.42820  Biso   1.000  C
  C99      1.0000 0.30220  0.13410  0.13410  Biso   1.000  C
  C100     1.0000 0.42820  0.13380  0.13380  Biso   1.000  C
  C101     1.0000 0.69780  0.86590  0.86590  Biso   1.000  C
  C102     1.0000 0.57180  0.86620  0.86620  Biso   1.000  C
  C103     1.0000 0.86590  0.86590  0.69780  Biso   1.000  C
  C104     1.0000 0.86620  0.86620  0.57180  Biso   1.000  C
  C105     1.0000 0.86590  0.69780  0.86590  Biso   1.000  C
  C106     1.0000 0.86620  0.57180  0.86620  Biso   1.000  C
  O1       1.0000 0.00000  0.00000  0.00000  Biso   1.000  O
  O2       1.0000 0.00117  0.17652  0.00000  Biso   1.000  O
  O3       1.0000 0.82406  0.17652  0.00000  Biso   1.000  O
  O4       1.0000 0.00015  0.17608  0.82362  Biso   1.000  O
  O5       1.0000 0.40454  0.58870  0.41413  Biso   1.000  O
  O6       1.0000 0.40571  0.76523  0.41413  Biso   1.000  O
  O7       1.0000 0.58165  0.58870  0.41413  Biso   1.000  O
  O8       1.0000 0.40556  0.58914  0.59051  Biso   1.000  O
  O9       1.0000 0.85353  0.82199  0.16195  Biso   1.000  O
  O10      1.0000 0.16402  0.33824  0.85438  Biso   1.000  O
  O11      1.0000 0.64503  0.03119  0.16195  Biso   1.000  O
  O12      1.0000 0.16280  0.33772  0.64535  Biso   1.000  O
  O13      1.0000 0.64529  0.33824  0.85438  Biso   1.000  O
  O14      1.0000 0.16376  0.03119  0.16195  Biso   1.000  O
  O15      1.0000 0.85396  0.33772  0.64535  Biso   1.000  O
  O16      1.0000 0.16237  0.82199  0.16195  Biso   1.000  O
  O17      1.0000 0.16076  0.02990  0.64535  Biso   1.000  O
  O18      1.0000 0.85697  0.33901  0.16195  Biso   1.000  O
  O19      1.0000 0.16058  0.82122  0.85438  Biso   1.000  O
  O20      1.0000 0.64708  0.33901  0.16195  Biso   1.000  O
  O21      1.0000 0.54874  0.42622  0.25218  Biso   1.000  O
  O22      1.0000 0.24513  0.94401  0.55975  Biso   1.000  O
  O23      1.0000 0.75863  0.42622  0.25218  Biso   1.000  O
  O24      1.0000 0.24495  0.73533  0.76878  Biso   1.000  O
  O25      1.0000 0.76042  0.42699  0.55975  Biso   1.000  O
  O26      1.0000 0.24334  0.94324  0.25218  Biso   1.000  O
  O27      1.0000 0.55175  0.42751  0.76878  Biso   1.000  O
  O28      1.0000 0.24195  0.73404  0.25218  Biso   1.000  O
  O29      1.0000 0.24291  0.42751  0.76878  Biso   1.000  O
  O30      1.0000 0.55218  0.94324  0.25218  Biso   1.000  O
  O31      1.0000 0.24169  0.42699  0.55975  Biso   1.000  O
  O32      1.0000 0.76068  0.73404  0.25218  Biso   1.000  O
  O33      1.0000 0.80140  0.84474  0.17668  Biso   1.000  O
  O34      1.0000 0.17860  0.35285  0.80222  Biso   1.000  O
  O35      1.0000 0.66756  0.97902  0.17668  Biso   1.000  O
  O36      1.0000 0.17782  0.35252  0.66805  Biso   1.000  O
  O37      1.0000 0.66787  0.35285  0.80222  Biso   1.000  O
  O38      1.0000 0.17829  0.97902  0.17668  Biso   1.000  O
  O39      1.0000 0.80182  0.35252  0.66805  Biso   1.000  O
  O40      1.0000 0.17740  0.84474  0.17668  Biso   1.000  O
  O41      1.0000 0.17533  0.97775  0.66805  Biso   1.000  O
  O42      1.0000 0.80478  0.35379  0.17668  Biso   1.000  O
  O43      1.0000 0.17522  0.84380  0.80222  Biso   1.000  O
  O44      1.0000 0.67005  0.35379  0.17668  Biso   1.000  O
  O45      1.0000 0.60093  0.41144  0.23745  Biso   1.000  O
  O46      1.0000 0.23049  0.92143  0.61191  Biso   1.000  O
  O47      1.0000 0.73566  0.41144  0.23745  Biso   1.000  O
  O48      1.0000 0.23038  0.78748  0.74608  Biso   1.000  O
  O49      1.0000 0.73784  0.41237  0.61191  Biso   1.000  O
  O50      1.0000 0.22831  0.92049  0.23745  Biso   1.000  O
  O51      1.0000 0.60389  0.41271  0.74608  Biso   1.000  O
  O52      1.0000 0.22742  0.78620  0.23745  Biso   1.000  O
  O53      1.0000 0.22789  0.41271  0.74608  Biso   1.000  O
  O54      1.0000 0.60431  0.92049  0.23745  Biso   1.000  O
  O55      1.0000 0.22711  0.41237  0.61191  Biso   1.000  O
  O56      1.0000 0.73815  0.78620  0.23745  Biso   1.000  O
  O57      1.0000 0.82090  0.99774  0.09068  Biso   1.000  O
  O58      1.0000 0.76039  0.93762  0.15090  Biso   1.000  O
  O59      1.0000 0.09179  0.26683  0.82113  Biso   1.000  O
  O60      1.0000 0.15231  0.32695  0.76091  Biso   1.000  O
  O61      1.0000 0.82113  0.26683  0.82113  Biso   1.000  O
  O62      1.0000 0.76071  0.32695  0.76091  Biso   1.000  O
  O63      1.0000 0.09156  0.99774  0.09068  Biso   1.000  O
  O64      1.0000 0.15198  0.93762  0.15090  Biso   1.000  O
  O65      1.0000 0.09000  0.99706  0.82113  Biso   1.000  O
  O66      1.0000 0.14971  0.93664  0.76091  Biso   1.000  O
  O67      1.0000 0.82270  0.26750  0.09068  Biso   1.000  O
  O68      1.0000 0.76298  0.32792  0.15090  Biso   1.000  O
  O69      1.0000 0.58301  0.49772  0.32345  Biso   1.000  O
  O70      1.0000 0.64273  0.43730  0.26323  Biso   1.000  O
  O71      1.0000 0.31571  0.76816  0.59300  Biso   1.000  O
  O72      1.0000 0.25600  0.82858  0.65322  Biso   1.000  O
  O73      1.0000 0.58458  0.49840  0.59300  Biso   1.000  O
  O74      1.0000 0.64500  0.43828  0.65322  Biso   1.000  O
  O75      1.0000 0.31415  0.76749  0.32345  Biso   1.000  O
  O76      1.0000 0.25373  0.82761  0.26323  Biso   1.000  O
  O77      1.0000 0.31392  0.49840  0.59300  Biso   1.000  O
  O78      1.0000 0.25340  0.43828  0.65322  Biso   1.000  O
  O79      1.0000 0.58481  0.76749  0.32345  Biso   1.000  O
  O80      1.0000 0.64532  0.82761  0.26323  Biso   1.000  O
  O81      1.0000 0.95635  0.13228  0.95591  Biso   1.000  O
  O82      1.0000 0.44936  0.63294  0.45822  Biso   1.000  O
  O83      1.0000 0.90226  0.95406  0.07177  Biso   1.000  O
  O84      1.0000 0.07314  0.24811  0.90255  Biso   1.000  O
  O85      1.0000 0.77756  0.07918  0.07177  Biso   1.000  O
  O86      1.0000 0.07242  0.24779  0.77754  Biso   1.000  O
  O87      1.0000 0.77770  0.24811  0.90255  Biso   1.000  O
  O88      1.0000 0.07300  0.07918  0.07177  Biso   1.000  O
  O89      1.0000 0.90251  0.24779  0.77754  Biso   1.000  O
  O90      1.0000 0.07217  0.95406  0.07177  Biso   1.000  O
  O91      1.0000 0.07129  0.07844  0.77754  Biso   1.000  O
  O92      1.0000 0.90422  0.24853  0.07177  Biso   1.000  O
  O93      1.0000 0.07119  0.95363  0.90255  Biso   1.000  O
  O94      1.0000 0.77868  0.24853  0.07177  Biso   1.000  O
  O95      1.0000 0.50149  0.51670  0.34236  Biso   1.000  O
  O96      1.0000 0.33452  0.81159  0.51158  Biso   1.000  O
  O97      1.0000 0.62703  0.51670  0.34236  Biso   1.000  O
  O98      1.0000 0.33442  0.68679  0.63659  Biso   1.000  O
  O99      1.0000 0.62801  0.51712  0.51158  Biso   1.000  O
  O100     1.0000 0.33354  0.81117  0.34236  Biso   1.000  O
  O101     1.0000 0.50320  0.51743  0.63659  Biso   1.000  O
  O102     1.0000 0.33270  0.68605  0.34236  Biso   1.000  O
  O103     1.0000 0.33329  0.51743  0.63659  Biso   1.000  O
  O104     1.0000 0.50345  0.81117  0.34236  Biso   1.000  O
  O105     1.0000 0.33256  0.51712  0.51158  Biso   1.000  O
