data_image0
_cell_length_a       18.3149
_cell_length_b       18.3149
_cell_length_c       18.3149
_cell_angle_alpha    60.3295
_cell_angle_beta     60.3295
_cell_angle_gamma    60.3295

_symmetry_space_group_name_H-M    "P 1"
_symmetry_int_tables_number       1

loop_
  _symmetry_equiv_pos_as_xyz
  'x, y, z'

loop_
  _atom_site_label
  _atom_site_occupancy
  _atom_site_fract_x
  _atom_site_fract_y
  _atom_site_fract_z
  _atom_site_thermal_displace_type
  _atom_site_B_iso_or_equiv
  _atom_site_type_symbol
  C1       1.0000 0.20609  0.20609  0.20609  Biso   1.000  C
  C2       1.0000 0.79391  0.79391  0.79391  Biso   1.000  C
  C3       1.0000 0.20677  0.37952  0.20677  Biso   1.000  C
  C4       1.0000 0.20677  0.20677  0.37952  Biso   1.000  C
  C5       1.0000 0.37952  0.20677  0.20677  Biso   1.000  C
  C6       1.0000 0.62048  0.79323  0.79323  Biso   1.000  C
  C7       1.0000 0.79323  0.79323  0.62048  Biso   1.000  C
  C8       1.0000 0.79323  0.62048  0.79323  Biso   1.000  C
  C9       1.0000 0.04260  0.34350  0.56530  Biso   1.000  C
  C10      1.0000 0.56530  0.04260  0.34350  Biso   1.000  C
  C11      1.0000 0.34350  0.56530  0.04260  Biso   1.000  C
  C12      1.0000 0.65650  0.95740  0.43470  Biso   1.000  C
  C13      1.0000 0.95740  0.43470  0.65650  Biso   1.000  C
  C14      1.0000 0.43470  0.65650  0.95740  Biso   1.000  C
  C15      1.0000 0.95740  0.65650  0.43470  Biso   1.000  C
  C16      1.0000 0.43470  0.95740  0.65650  Biso   1.000  C
  C17      1.0000 0.65650  0.43470  0.95740  Biso   1.000  C
  C18      1.0000 0.34350  0.04260  0.56530  Biso   1.000  C
  C19      1.0000 0.04260  0.56530  0.34350  Biso   1.000  C
  C20      1.0000 0.56530  0.34350  0.04260  Biso   1.000  C
  C21      1.0000 0.04880  0.55860  0.04880  Biso   1.000  C
  C22      1.0000 0.04170  0.34450  0.04170  Biso   1.000  C
  C23      1.0000 0.04880  0.04880  0.55860  Biso   1.000  C
  C24      1.0000 0.04170  0.04170  0.34450  Biso   1.000  C
  C25      1.0000 0.55860  0.04880  0.04880  Biso   1.000  C
  C26      1.0000 0.34450  0.04170  0.04170  Biso   1.000  C
  C27      1.0000 0.44140  0.95120  0.95120  Biso   1.000  C
  C28      1.0000 0.65550  0.95830  0.95830  Biso   1.000  C
  C29      1.0000 0.95120  0.95120  0.44140  Biso   1.000  C
  C30      1.0000 0.95830  0.95830  0.65550  Biso   1.000  C
  C31      1.0000 0.95120  0.44140  0.95120  Biso   1.000  C
  C32      1.0000 0.95830  0.65550  0.95830  Biso   1.000  C
  C33      1.0000 0.02770  0.40510  0.53870  Biso   1.000  C
  C34      1.0000 0.53870  0.02770  0.40510  Biso   1.000  C
  C35      1.0000 0.40510  0.53870  0.02770  Biso   1.000  C
  C36      1.0000 0.59490  0.97230  0.46130  Biso   1.000  C
  C37      1.0000 0.97230  0.46130  0.59490  Biso   1.000  C
  C38      1.0000 0.46130  0.59490  0.97230  Biso   1.000  C
  C39      1.0000 0.97230  0.59490  0.46130  Biso   1.000  C
  C40      1.0000 0.46130  0.97230  0.59490  Biso   1.000  C
  C41      1.0000 0.59490  0.46130  0.97230  Biso   1.000  C
  C42      1.0000 0.40510  0.02770  0.53870  Biso   1.000  C
  C43      1.0000 0.02770  0.53870  0.40510  Biso   1.000  C
  C44      1.0000 0.53870  0.40510  0.02770  Biso   1.000  C
  C45      1.0000 0.11130  0.39010  0.11130  Biso   1.000  C
  C46      1.0000 0.05390  0.44400  0.05390  Biso   1.000  C
  C47      1.0000 0.02940  0.53530  0.02940  Biso   1.000  C
  C48      1.0000 0.02520  0.40600  0.02520  Biso   1.000  C
  C49      1.0000 0.11130  0.11130  0.39010  Biso   1.000  C
  C50      1.0000 0.05390  0.05390  0.44400  Biso   1.000  C
  C51      1.0000 0.02940  0.02940  0.53530  Biso   1.000  C
  C52      1.0000 0.02520  0.02520  0.40600  Biso   1.000  C
  C53      1.0000 0.39010  0.11130  0.11130  Biso   1.000  C
  C54      1.0000 0.44400  0.05390  0.05390  Biso   1.000  C
  C55      1.0000 0.53530  0.02940  0.02940  Biso   1.000  C
  C56      1.0000 0.40600  0.02520  0.02520  Biso   1.000  C
  C57      1.0000 0.60990  0.88870  0.88870  Biso   1.000  C
  C58      1.0000 0.55600  0.94610  0.94610  Biso   1.000  C
  C59      1.0000 0.46470  0.97060  0.97060  Biso   1.000  C
  C60      1.0000 0.59400  0.97480  0.97480  Biso   1.000  C
  C61      1.0000 0.88870  0.88870  0.60990  Biso   1.000  C
  C62      1.0000 0.94610  0.94610  0.55600  Biso   1.000  C
  C63      1.0000 0.97060  0.97060  0.46470  Biso   1.000  C
  C64      1.0000 0.97480  0.97480  0.59400  Biso   1.000  C
  C65      1.0000 0.88870  0.60990  0.88870  Biso   1.000  C
  C66      1.0000 0.94610  0.55600  0.94610  Biso   1.000  C
  C67      1.0000 0.97060  0.46470  0.97060  Biso   1.000  C
  C68      1.0000 0.97480  0.59400  0.97480  Biso   1.000  C
  C69      1.0000 0.11170  0.38940  0.38940  Biso   1.000  C
  C70      1.0000 0.05990  0.44245  0.44245  Biso   1.000  C
  C71      1.0000 0.38940  0.11170  0.38940  Biso   1.000  C
  C72      1.0000 0.44245  0.05990  0.44245  Biso   1.000  C
  C73      1.0000 0.38940  0.38940  0.11170  Biso   1.000  C
  C74      1.0000 0.44245  0.44245  0.05990  Biso   1.000  C
  C75      1.0000 0.61060  0.88830  0.61060  Biso   1.000  C
  C76      1.0000 0.55755  0.94010  0.55755  Biso   1.000  C
  C77      1.0000 0.88830  0.61060  0.61060  Biso   1.000  C
  C78      1.0000 0.94010  0.55755  0.55755  Biso   1.000  C
  C79      1.0000 0.61060  0.61060  0.88830  Biso   1.000  C
  C80      1.0000 0.55755  0.55755  0.94010  Biso   1.000  C
  C81      1.0000 0.13529  0.42759  0.30119  Biso   1.000  C
  C82      1.0000 0.30119  0.13529  0.42759  Biso   1.000  C
  C83      1.0000 0.42759  0.30119  0.13529  Biso   1.000  C
  C84      1.0000 0.57241  0.86471  0.69881  Biso   1.000  C
  C85      1.0000 0.86471  0.69881  0.57241  Biso   1.000  C
  C86      1.0000 0.69881  0.57241  0.86471  Biso   1.000  C
  C87      1.0000 0.86471  0.57241  0.69881  Biso   1.000  C
  C88      1.0000 0.69881  0.86471  0.57241  Biso   1.000  C
  C89      1.0000 0.57241  0.69881  0.86471  Biso   1.000  C
  C90      1.0000 0.42759  0.13529  0.30119  Biso   1.000  C
  C91      1.0000 0.13529  0.30119  0.42759  Biso   1.000  C
  C92      1.0000 0.30119  0.42759  0.13529  Biso   1.000  C
  C93      1.0000 0.25153  0.25153  0.25153  Biso   1.000  C
  C94      1.0000 0.74847  0.74847  0.74847  Biso   1.000  C
  C95      1.0000 0.13410  0.30220  0.13410  Biso   1.000  C
  C96      1.0000 0.13380  0.42820  0.13380  Biso   1.000  C
  C97      1.0000 0.13410  0.13410  0.30220  Biso   1.000  C
  C98      1.0000 0.13380  0.13380  0.42820  Biso   1.000  C
  C99      1.0000 0.30220  0.13410  0.13410  Biso   1.000  C
  C100     1.0000 0.42820  0.13380  0.13380  Biso   1.000  C
  C101     1.0000 0.69780  0.86590  0.86590  Biso   1.000  C
  C102     1.0000 0.57180  0.86620  0.86620  Biso   1.000  C
  C103     1.0000 0.86590  0.86590  0.69780  Biso   1.000  C
  C104     1.0000 0.86620  0.86620  0.57180  Biso   1.000  C
  C105     1.0000 0.86590  0.69780  0.86590  Biso   1.000  C
  C106     1.0000 0.86620  0.57180  0.86620  Biso   1.000  C
  O1       1.0000 0.30188  0.55562  0.59936  Biso   1.000  O
  O2       1.0000 0.47247  0.38445  0.59941  Biso   1.000  O
  O3       1.0000 0.47365  0.55562  0.59936  Biso   1.000  O
  O4       1.0000 0.47261  0.55524  0.42834  Biso   1.000  O
  O5       1.0000 0.06909  0.96495  0.00733  Biso   1.000  O
  O6       1.0000 0.89850  0.13612  0.00728  Biso   1.000  O
  O7       1.0000 0.89731  0.96495  0.00733  Biso   1.000  O
  O8       1.0000 0.89835  0.96533  0.17835  Biso   1.000  O
  O9       1.0000 0.14401  0.35763  0.77649  Biso   1.000  O
  O10      1.0000 0.14552  0.73356  0.77848  Biso   1.000  O
  O11      1.0000 0.14451  0.73162  0.40108  Biso   1.000  O
  O12      1.0000 0.28895  0.21558  0.77748  Biso   1.000  O
  O13      1.0000 0.66391  0.21364  0.40089  Biso   1.000  O
  O14      1.0000 0.66512  0.21577  0.77808  Biso   1.000  O
  O15      1.0000 0.65248  0.73240  0.40109  Biso   1.000  O
  O16      1.0000 0.27653  0.73533  0.77670  Biso   1.000  O
  O17      1.0000 0.65277  0.35762  0.77571  Biso   1.000  O
  O18      1.0000 0.65649  0.73554  0.25832  Biso   1.000  O
  O19      1.0000 0.65597  0.35863  0.25732  Biso   1.000  O
  O20      1.0000 0.27953  0.73614  0.25851  Biso   1.000  O
  O21      1.0000 0.22695  0.16295  0.83020  Biso   1.000  O
  O22      1.0000 0.22544  0.78702  0.82822  Biso   1.000  O
  O23      1.0000 0.22646  0.78895  0.20561  Biso   1.000  O
  O24      1.0000 0.08202  0.30499  0.82921  Biso   1.000  O
  O25      1.0000 0.70705  0.30694  0.20581  Biso   1.000  O
  O26      1.0000 0.70584  0.30481  0.82861  Biso   1.000  O
  O27      1.0000 0.71848  0.78817  0.20560  Biso   1.000  O
  O28      1.0000 0.09443  0.78524  0.82999  Biso   1.000  O
  O29      1.0000 0.71819  0.16296  0.83098  Biso   1.000  O
  O30      1.0000 0.71448  0.78503  0.34837  Biso   1.000  O
  O31      1.0000 0.71500  0.16195  0.34937  Biso   1.000  O
  O32      1.0000 0.09143  0.78443  0.34819  Biso   1.000  O
  O33      1.0000 0.23556  0.31942  0.75025  Biso   1.000  O
  O34      1.0000 0.29376  0.37724  0.69234  Biso   1.000  O
  O35      1.0000 0.62475  0.70604  0.36299  Biso   1.000  O
  O36      1.0000 0.56655  0.64823  0.42090  Biso   1.000  O
  O37      1.0000 0.13541  0.20115  0.85644  Biso   1.000  O
  O38      1.0000 0.07721  0.14333  0.91435  Biso   1.000  O
  O39      1.0000 0.74622  0.81453  0.24370  Biso   1.000  O
  O40      1.0000 0.80442  0.87235  0.18579  Biso   1.000  O
  O41      1.0000 0.23568  0.70624  0.36279  Biso   1.000  O
  O42      1.0000 0.29351  0.64870  0.42043  Biso   1.000  O
  O43      1.0000 0.62462  0.31923  0.75045  Biso   1.000  O
  O44      1.0000 0.56679  0.37677  0.69281  Biso   1.000  O
  O45      1.0000 0.13528  0.81433  0.24390  Biso   1.000  O
  O46      1.0000 0.07745  0.87187  0.18627  Biso   1.000  O
  O47      1.0000 0.74634  0.20135  0.85625  Biso   1.000  O
  O48      1.0000 0.80417  0.14381  0.91388  Biso   1.000  O
  O49      1.0000 0.23774  0.70741  0.75065  Biso   1.000  O
  O50      1.0000 0.29490  0.64958  0.69301  Biso   1.000  O
  O51      1.0000 0.62256  0.31806  0.36260  Biso   1.000  O
  O52      1.0000 0.56541  0.37588  0.42023  Biso   1.000  O
  O53      1.0000 0.13322  0.81316  0.85605  Biso   1.000  O
  O54      1.0000 0.07607  0.87099  0.91368  Biso   1.000  O
  O55      1.0000 0.74840  0.20252  0.24410  Biso   1.000  O
  O56      1.0000 0.80556  0.14469  0.18646  Biso   1.000  O
  O57      1.0000 0.25392  0.46039  0.67161  Biso   1.000  O
  O58      1.0000 0.25454  0.62611  0.50321  Biso   1.000  O
  O59      1.0000 0.25466  0.62689  0.67120  Biso   1.000  O
  O60      1.0000 0.37684  0.33704  0.67004  Biso   1.000  O
  O61      1.0000 0.54354  0.33754  0.67195  Biso   1.000  O
  O62      1.0000 0.54292  0.33627  0.50445  Biso   1.000  O
  O63      1.0000 0.54450  0.62769  0.50404  Biso   1.000  O
  O64      1.0000 0.54626  0.45956  0.67004  Biso   1.000  O
  O65      1.0000 0.37919  0.62769  0.67039  Biso   1.000  O
  O66      1.0000 0.54535  0.62580  0.38079  Biso   1.000  O
  O67      1.0000 0.37627  0.62772  0.38129  Biso   1.000  O
  O68      1.0000 0.54383  0.46008  0.38044  Biso   1.000  O
  O69      1.0000 0.11705  0.06018  0.93508  Biso   1.000  O
  O70      1.0000 0.11643  0.89446  0.10348  Biso   1.000  O
  O71      1.0000 0.11630  0.89369  0.93549  Biso   1.000  O
  O72      1.0000 0.99412  0.18353  0.93666  Biso   1.000  O
  O73      1.0000 0.82742  0.18303  0.93474  Biso   1.000  O
  O74      1.0000 0.82805  0.18430  0.10224  Biso   1.000  O
  O75      1.0000 0.82647  0.89288  0.10266  Biso   1.000  O
  O76      1.0000 0.82470  0.06101  0.93666  Biso   1.000  O
  O77      1.0000 0.99177  0.89288  0.93630  Biso   1.000  O
  O78      1.0000 0.82561  0.89477  0.22590  Biso   1.000  O
  O79      1.0000 0.99470  0.89285  0.22541  Biso   1.000  O
  O80      1.0000 0.82713  0.06049  0.22626  Biso   1.000  O
  O81      1.0000 0.43015  0.51273  0.55662  Biso   1.000  O
  O82      1.0000 0.94081  0.00784  0.05007  Biso   1.000  O
  O83      1.0000 0.11336  0.71083  0.75729  Biso   1.000  O
  O84      1.0000 0.35217  0.71406  0.75405  Biso   1.000  O
  O85      1.0000 0.25761  0.80974  0.84941  Biso   1.000  O
  O86      1.0000 0.01880  0.80651  0.85264  Biso   1.000  O
  O87      1.0000 0.63212  0.43321  0.75282  Biso   1.000  O
  O88      1.0000 0.72917  0.33664  0.84954  Biso   1.000  O
  O89      1.0000 0.11290  0.70889  0.47667  Biso   1.000  O
  O90      1.0000 0.01586  0.80546  0.37995  Biso   1.000  O
  O91      1.0000 0.36452  0.18373  0.75598  Biso   1.000  O
  O92      1.0000 0.64140  0.18204  0.47648  Biso   1.000  O
  O93      1.0000 0.73722  0.80664  0.38014  Biso   1.000  O
  O94      1.0000 0.73596  0.08637  0.38113  Biso   1.000  O
  O95      1.0000 0.64180  0.18393  0.75715  Biso   1.000  O
  O96      1.0000 0.73884  0.08736  0.85388  Biso   1.000  O
  O97      1.0000 0.35510  0.71511  0.22675  Biso   1.000  O
  O98      1.0000 0.25806  0.81168  0.13002  Biso   1.000  O
  O99      1.0000 0.73978  0.81033  0.13000  Biso   1.000  O
  O100     1.0000 0.63501  0.43421  0.22556  Biso   1.000  O
  O101     1.0000 0.72957  0.33853  0.13021  Biso   1.000  O
  O102     1.0000 0.63374  0.71394  0.22655  Biso   1.000  O
  O103     1.0000 0.00644  0.33684  0.85072  Biso   1.000  O
  O104     1.0000 0.11248  0.43323  0.75417  Biso   1.000  O
  O105     1.0000 0.25848  0.08734  0.85252  Biso   1.000  O
