data_image0
_cell_length_a       18.3149
_cell_length_b       18.3149
_cell_length_c       18.3149
_cell_angle_alpha    60.3295
_cell_angle_beta     60.3295
_cell_angle_gamma    60.3295

_symmetry_space_group_name_H-M    "P 1"
_symmetry_int_tables_number       1

loop_
  _symmetry_equiv_pos_as_xyz
  'x, y, z'

loop_
  _atom_site_label
  _atom_site_occupancy
  _atom_site_fract_x
  _atom_site_fract_y
  _atom_site_fract_z
  _atom_site_thermal_displace_type
  _atom_site_B_iso_or_equiv
  _atom_site_type_symbol
  C1       1.0000 0.20609  0.20609  0.20609  Biso   1.000  C
  C2       1.0000 0.79391  0.79391  0.79391  Biso   1.000  C
  C3       1.0000 0.20677  0.37952  0.20677  Biso   1.000  C
  C4       1.0000 0.20677  0.20677  0.37952  Biso   1.000  C
  C5       1.0000 0.37952  0.20677  0.20677  Biso   1.000  C
  C6       1.0000 0.62048  0.79323  0.79323  Biso   1.000  C
  C7       1.0000 0.79323  0.79323  0.62048  Biso   1.000  C
  C8       1.0000 0.79323  0.62048  0.79323  Biso   1.000  C
  C9       1.0000 0.04260  0.34350  0.56530  Biso   1.000  C
  C10      1.0000 0.56530  0.04260  0.34350  Biso   1.000  C
  C11      1.0000 0.34350  0.56530  0.04260  Biso   1.000  C
  C12      1.0000 0.65650  0.95740  0.43470  Biso   1.000  C
  C13      1.0000 0.95740  0.43470  0.65650  Biso   1.000  C
  C14      1.0000 0.43470  0.65650  0.95740  Biso   1.000  C
  C15      1.0000 0.95740  0.65650  0.43470  Biso   1.000  C
  C16      1.0000 0.43470  0.95740  0.65650  Biso   1.000  C
  C17      1.0000 0.65650  0.43470  0.95740  Biso   1.000  C
  C18      1.0000 0.34350  0.04260  0.56530  Biso   1.000  C
  C19      1.0000 0.04260  0.56530  0.34350  Biso   1.000  C
  C20      1.0000 0.56530  0.34350  0.04260  Biso   1.000  C
  C21      1.0000 0.04880  0.55860  0.04880  Biso   1.000  C
  C22      1.0000 0.04170  0.34450  0.04170  Biso   1.000  C
  C23      1.0000 0.04880  0.04880  0.55860  Biso   1.000  C
  C24      1.0000 0.04170  0.04170  0.34450  Biso   1.000  C
  C25      1.0000 0.55860  0.04880  0.04880  Biso   1.000  C
  C26      1.0000 0.34450  0.04170  0.04170  Biso   1.000  C
  C27      1.0000 0.44140  0.95120  0.95120  Biso   1.000  C
  C28      1.0000 0.65550  0.95830  0.95830  Biso   1.000  C
  C29      1.0000 0.95120  0.95120  0.44140  Biso   1.000  C
  C30      1.0000 0.95830  0.95830  0.65550  Biso   1.000  C
  C31      1.0000 0.95120  0.44140  0.95120  Biso   1.000  C
  C32      1.0000 0.95830  0.65550  0.95830  Biso   1.000  C
  C33      1.0000 0.02770  0.40510  0.53870  Biso   1.000  C
  C34      1.0000 0.53870  0.02770  0.40510  Biso   1.000  C
  C35      1.0000 0.40510  0.53870  0.02770  Biso   1.000  C
  C36      1.0000 0.59490  0.97230  0.46130  Biso   1.000  C
  C37      1.0000 0.97230  0.46130  0.59490  Biso   1.000  C
  C38      1.0000 0.46130  0.59490  0.97230  Biso   1.000  C
  C39      1.0000 0.97230  0.59490  0.46130  Biso   1.000  C
  C40      1.0000 0.46130  0.97230  0.59490  Biso   1.000  C
  C41      1.0000 0.59490  0.46130  0.97230  Biso   1.000  C
  C42      1.0000 0.40510  0.02770  0.53870  Biso   1.000  C
  C43      1.0000 0.02770  0.53870  0.40510  Biso   1.000  C
  C44      1.0000 0.53870  0.40510  0.02770  Biso   1.000  C
  C45      1.0000 0.11130  0.39010  0.11130  Biso   1.000  C
  C46      1.0000 0.05390  0.44400  0.05390  Biso   1.000  C
  C47      1.0000 0.02940  0.53530  0.02940  Biso   1.000  C
  C48      1.0000 0.02520  0.40600  0.02520  Biso   1.000  C
  C49      1.0000 0.11130  0.11130  0.39010  Biso   1.000  C
  C50      1.0000 0.05390  0.05390  0.44400  Biso   1.000  C
  C51      1.0000 0.02940  0.02940  0.53530  Biso   1.000  C
  C52      1.0000 0.02520  0.02520  0.40600  Biso   1.000  C
  C53      1.0000 0.39010  0.11130  0.11130  Biso   1.000  C
  C54      1.0000 0.44400  0.05390  0.05390  Biso   1.000  C
  C55      1.0000 0.53530  0.02940  0.02940  Biso   1.000  C
  C56      1.0000 0.40600  0.02520  0.02520  Biso   1.000  C
  C57      1.0000 0.60990  0.88870  0.88870  Biso   1.000  C
  C58      1.0000 0.55600  0.94610  0.94610  Biso   1.000  C
  C59      1.0000 0.46470  0.97060  0.97060  Biso   1.000  C
  C60      1.0000 0.59400  0.97480  0.97480  Biso   1.000  C
  C61      1.0000 0.88870  0.88870  0.60990  Biso   1.000  C
  C62      1.0000 0.94610  0.94610  0.55600  Biso   1.000  C
  C63      1.0000 0.97060  0.97060  0.46470  Biso   1.000  C
  C64      1.0000 0.97480  0.97480  0.59400  Biso   1.000  C
  C65      1.0000 0.88870  0.60990  0.88870  Biso   1.000  C
  C66      1.0000 0.94610  0.55600  0.94610  Biso   1.000  C
  C67      1.0000 0.97060  0.46470  0.97060  Biso   1.000  C
  C68      1.0000 0.97480  0.59400  0.97480  Biso   1.000  C
  C69      1.0000 0.11170  0.38940  0.38940  Biso   1.000  C
  C70      1.0000 0.05990  0.44245  0.44245  Biso   1.000  C
  C71      1.0000 0.38940  0.11170  0.38940  Biso   1.000  C
  C72      1.0000 0.44245  0.05990  0.44245  Biso   1.000  C
  C73      1.0000 0.38940  0.38940  0.11170  Biso   1.000  C
  C74      1.0000 0.44245  0.44245  0.05990  Biso   1.000  C
  C75      1.0000 0.61060  0.88830  0.61060  Biso   1.000  C
  C76      1.0000 0.55755  0.94010  0.55755  Biso   1.000  C
  C77      1.0000 0.88830  0.61060  0.61060  Biso   1.000  C
  C78      1.0000 0.94010  0.55755  0.55755  Biso   1.000  C
  C79      1.0000 0.61060  0.61060  0.88830  Biso   1.000  C
  C80      1.0000 0.55755  0.55755  0.94010  Biso   1.000  C
  C81      1.0000 0.13529  0.42759  0.30119  Biso   1.000  C
  C82      1.0000 0.30119  0.13529  0.42759  Biso   1.000  C
  C83      1.0000 0.42759  0.30119  0.13529  Biso   1.000  C
  C84      1.0000 0.57241  0.86471  0.69881  Biso   1.000  C
  C85      1.0000 0.86471  0.69881  0.57241  Biso   1.000  C
  C86      1.0000 0.69881  0.57241  0.86471  Biso   1.000  C
  C87      1.0000 0.86471  0.57241  0.69881  Biso   1.000  C
  C88      1.0000 0.69881  0.86471  0.57241  Biso   1.000  C
  C89      1.0000 0.57241  0.69881  0.86471  Biso   1.000  C
  C90      1.0000 0.42759  0.13529  0.30119  Biso   1.000  C
  C91      1.0000 0.13529  0.30119  0.42759  Biso   1.000  C
  C92      1.0000 0.30119  0.42759  0.13529  Biso   1.000  C
  C93      1.0000 0.25153  0.25153  0.25153  Biso   1.000  C
  C94      1.0000 0.74847  0.74847  0.74847  Biso   1.000  C
  C95      1.0000 0.13410  0.30220  0.13410  Biso   1.000  C
  C96      1.0000 0.13380  0.42820  0.13380  Biso   1.000  C
  C97      1.0000 0.13410  0.13410  0.30220  Biso   1.000  C
  C98      1.0000 0.13380  0.13380  0.42820  Biso   1.000  C
  C99      1.0000 0.30220  0.13410  0.13410  Biso   1.000  C
  C100     1.0000 0.42820  0.13380  0.13380  Biso   1.000  C
  C101     1.0000 0.69780  0.86590  0.86590  Biso   1.000  C
  C102     1.0000 0.57180  0.86620  0.86620  Biso   1.000  C
  C103     1.0000 0.86590  0.86590  0.69780  Biso   1.000  C
  C104     1.0000 0.86620  0.86620  0.57180  Biso   1.000  C
  C105     1.0000 0.86590  0.69780  0.86590  Biso   1.000  C
  C106     1.0000 0.86620  0.57180  0.86620  Biso   1.000  C
  O1       1.0000 0.00000  0.00000  0.00000  Biso   1.000  O
  O2       1.0000 0.00115  0.17283  0.00000  Biso   1.000  O
  O3       1.0000 0.82774  0.17283  0.00000  Biso   1.000  O
  O4       1.0000 0.00014  0.17240  0.82731  Biso   1.000  O
  O5       1.0000 0.40548  0.58716  0.41628  Biso   1.000  O
  O6       1.0000 0.40663  0.76000  0.41628  Biso   1.000  O
  O7       1.0000 0.57889  0.58716  0.41628  Biso   1.000  O
  O8       1.0000 0.40649  0.58760  0.58897  Biso   1.000  O
  O9       1.0000 0.86216  0.81592  0.16065  Biso   1.000  O
  O10      1.0000 0.16274  0.33328  0.86302  Biso   1.000  O
  O11      1.0000 0.64268  0.03614  0.16065  Biso   1.000  O
  O12      1.0000 0.16146  0.33273  0.64298  Biso   1.000  O
  O13      1.0000 0.64292  0.33328  0.86302  Biso   1.000  O
  O14      1.0000 0.16249  0.03614  0.16065  Biso   1.000  O
  O15      1.0000 0.86259  0.33273  0.64298  Biso   1.000  O
  O16      1.0000 0.16103  0.81592  0.16065  Biso   1.000  O
  O17      1.0000 0.15948  0.03485  0.64298  Biso   1.000  O
  O18      1.0000 0.86561  0.33402  0.16065  Biso   1.000  O
  O19      1.0000 0.15930  0.81518  0.86302  Biso   1.000  O
  O20      1.0000 0.64465  0.33402  0.16065  Biso   1.000  O
  O21      1.0000 0.54102  0.42597  0.25562  Biso   1.000  O
  O22      1.0000 0.24733  0.94482  0.55325  Biso   1.000  O
  O23      1.0000 0.76198  0.42597  0.25562  Biso   1.000  O
  O24      1.0000 0.24715  0.72515  0.77329  Biso   1.000  O
  O25      1.0000 0.76371  0.42672  0.55325  Biso   1.000  O
  O26      1.0000 0.24560  0.94408  0.25562  Biso   1.000  O
  O27      1.0000 0.54404  0.42727  0.77329  Biso   1.000  O
  O28      1.0000 0.24414  0.72385  0.25562  Biso   1.000  O
  O29      1.0000 0.24517  0.42727  0.77329  Biso   1.000  O
  O30      1.0000 0.54447  0.94408  0.25562  Biso   1.000  O
  O31      1.0000 0.24389  0.42672  0.55325  Biso   1.000  O
  O32      1.0000 0.76395  0.72385  0.25562  Biso   1.000  O
  O33      1.0000 0.79921  0.84246  0.17891  Biso   1.000  O
  O34      1.0000 0.18082  0.35139  0.80004  Biso   1.000  O
  O35      1.0000 0.66894  0.97316  0.17891  Biso   1.000  O
  O36      1.0000 0.18006  0.35106  0.66945  Biso   1.000  O
  O37      1.0000 0.66926  0.35139  0.80004  Biso   1.000  O
  O38      1.0000 0.18051  0.97316  0.17891  Biso   1.000  O
  O39      1.0000 0.79963  0.35106  0.66945  Biso   1.000  O
  O40      1.0000 0.17964  0.84246  0.17891  Biso   1.000  O
  O41      1.0000 0.17754  0.97188  0.66945  Biso   1.000  O
  O42      1.0000 0.80259  0.35234  0.17891  Biso   1.000  O
  O43      1.0000 0.17743  0.84151  0.80004  Biso   1.000  O
  O44      1.0000 0.67146  0.35234  0.17891  Biso   1.000  O
  O45      1.0000 0.60404  0.40766  0.23737  Biso   1.000  O
  O46      1.0000 0.22919  0.91849  0.61623  Biso   1.000  O
  O47      1.0000 0.73517  0.40766  0.23737  Biso   1.000  O
  O48      1.0000 0.22909  0.78811  0.74682  Biso   1.000  O
  O49      1.0000 0.73737  0.40861  0.61623  Biso   1.000  O
  O50      1.0000 0.22699  0.91754  0.23737  Biso   1.000  O
  O51      1.0000 0.60700  0.40893  0.74682  Biso   1.000  O
  O52      1.0000 0.22612  0.78684  0.23737  Biso   1.000  O
  O53      1.0000 0.22657  0.40893  0.74682  Biso   1.000  O
  O54      1.0000 0.60742  0.91754  0.23737  Biso   1.000  O
  O55      1.0000 0.22581  0.40861  0.61623  Biso   1.000  O
  O56      1.0000 0.73769  0.78684  0.23737  Biso   1.000  O
  O57      1.0000 0.81877  0.99194  0.09463  Biso   1.000  O
  O58      1.0000 0.76106  0.93461  0.15206  Biso   1.000  O
  O59      1.0000 0.09575  0.26709  0.81902  Biso   1.000  O
  O60      1.0000 0.15346  0.32442  0.76160  Biso   1.000  O
  O61      1.0000 0.81900  0.26709  0.81902  Biso   1.000  O
  O62      1.0000 0.76138  0.32442  0.76160  Biso   1.000  O
  O63      1.0000 0.09552  0.99194  0.09463  Biso   1.000  O
  O64      1.0000 0.15314  0.93461  0.15206  Biso   1.000  O
  O65      1.0000 0.09391  0.99125  0.81902  Biso   1.000  O
  O66      1.0000 0.15086  0.93364  0.76160  Biso   1.000  O
  O67      1.0000 0.82060  0.26778  0.09463  Biso   1.000  O
  O68      1.0000 0.76365  0.32540  0.15206  Biso   1.000  O
  O69      1.0000 0.58603  0.49222  0.32164  Biso   1.000  O
  O70      1.0000 0.64298  0.43460  0.26422  Biso   1.000  O
  O71      1.0000 0.31271  0.76874  0.59725  Biso   1.000  O
  O72      1.0000 0.25577  0.82636  0.65468  Biso   1.000  O
  O73      1.0000 0.58763  0.49291  0.59725  Biso   1.000  O
  O74      1.0000 0.64525  0.43557  0.65468  Biso   1.000  O
  O75      1.0000 0.31111  0.76805  0.32164  Biso   1.000  O
  O76      1.0000 0.25349  0.82539  0.26422  Biso   1.000  O
  O77      1.0000 0.31088  0.49291  0.59725  Biso   1.000  O
  O78      1.0000 0.25317  0.43557  0.65468  Biso   1.000  O
  O79      1.0000 0.58786  0.76805  0.32164  Biso   1.000  O
  O80      1.0000 0.64557  0.82539  0.26422  Biso   1.000  O
  O81      1.0000 0.95726  0.12952  0.95683  Biso   1.000  O
  O82      1.0000 0.44937  0.63048  0.45945  Biso   1.000  O
  O83      1.0000 0.90190  0.95295  0.07250  Biso   1.000  O
  O84      1.0000 0.07386  0.24515  0.90220  Biso   1.000  O
  O85      1.0000 0.78013  0.07513  0.07250  Biso   1.000  O
  O86      1.0000 0.07315  0.24484  0.78012  Biso   1.000  O
  O87      1.0000 0.78027  0.24515  0.90220  Biso   1.000  O
  O88      1.0000 0.07372  0.07513  0.07250  Biso   1.000  O
  O89      1.0000 0.90214  0.24484  0.78012  Biso   1.000  O
  O90      1.0000 0.07291  0.95295  0.07250  Biso   1.000  O
  O91      1.0000 0.07202  0.07440  0.78012  Biso   1.000  O
  O92      1.0000 0.90384  0.24557  0.07250  Biso   1.000  O
  O93      1.0000 0.07192  0.95252  0.90220  Biso   1.000  O
  O94      1.0000 0.78126  0.24557  0.07250  Biso   1.000  O
  O95      1.0000 0.50279  0.51442  0.34378  Biso   1.000  O
  O96      1.0000 0.33471  0.80747  0.51408  Biso   1.000  O
  O97      1.0000 0.62537  0.51442  0.34378  Biso   1.000  O
  O98      1.0000 0.33461  0.68560  0.63616  Biso   1.000  O
  O99      1.0000 0.62636  0.51485  0.51408  Biso   1.000  O
  O100     1.0000 0.33372  0.80705  0.34378  Biso   1.000  O
  O101     1.0000 0.50449  0.51516  0.63616  Biso   1.000  O
  O102     1.0000 0.33291  0.68487  0.34378  Biso   1.000  O
  O103     1.0000 0.33348  0.51516  0.63616  Biso   1.000  O
  O104     1.0000 0.50473  0.80705  0.34378  Biso   1.000  O
  O105     1.0000 0.33277  0.51485  0.51408  Biso   1.000  O
