data_image0
_cell_length_a       18.3149
_cell_length_b       18.3149
_cell_length_c       18.3149
_cell_angle_alpha    60.3295
_cell_angle_beta     60.3295
_cell_angle_gamma    60.3295

_symmetry_space_group_name_H-M    "P 1"
_symmetry_int_tables_number       1

loop_
  _symmetry_equiv_pos_as_xyz
  'x, y, z'

loop_
  _atom_site_label
  _atom_site_occupancy
  _atom_site_fract_x
  _atom_site_fract_y
  _atom_site_fract_z
  _atom_site_thermal_displace_type
  _atom_site_B_iso_or_equiv
  _atom_site_type_symbol
  Zn1      1.0000 0.20609  0.20609  0.20609  Biso   1.000  Zn
  Zn2      1.0000 0.79391  0.79391  0.79391  Biso   1.000  Zn
  Zn3      1.0000 0.20677  0.37952  0.20677  Biso   1.000  Zn
  Zn4      1.0000 0.20677  0.20677  0.37952  Biso   1.000  Zn
  Zn5      1.0000 0.37952  0.20677  0.20677  Biso   1.000  Zn
  Zn6      1.0000 0.62048  0.79323  0.79323  Biso   1.000  Zn
  Zn7      1.0000 0.79323  0.79323  0.62048  Biso   1.000  Zn
  Zn8      1.0000 0.79323  0.62048  0.79323  Biso   1.000  Zn
  H1       1.0000 0.04260  0.34350  0.56530  Biso   1.000  H
  H2       1.0000 0.56530  0.04260  0.34350  Biso   1.000  H
  H3       1.0000 0.34350  0.56530  0.04260  Biso   1.000  H
  H4       1.0000 0.65650  0.95740  0.43470  Biso   1.000  H
  H5       1.0000 0.95740  0.43470  0.65650  Biso   1.000  H
  H6       1.0000 0.43470  0.65650  0.95740  Biso   1.000  H
  H7       1.0000 0.95740  0.65650  0.43470  Biso   1.000  H
  H8       1.0000 0.43470  0.95740  0.65650  Biso   1.000  H
  H9       1.0000 0.65650  0.43470  0.95740  Biso   1.000  H
  H10      1.0000 0.34350  0.04260  0.56530  Biso   1.000  H
  H11      1.0000 0.04260  0.56530  0.34350  Biso   1.000  H
  H12      1.0000 0.56530  0.34350  0.04260  Biso   1.000  H
  H13      1.0000 0.04880  0.55860  0.04880  Biso   1.000  H
  H14      1.0000 0.04170  0.34450  0.04170  Biso   1.000  H
  H15      1.0000 0.04880  0.04880  0.55860  Biso   1.000  H
  H16      1.0000 0.04170  0.04170  0.34450  Biso   1.000  H
  H17      1.0000 0.55860  0.04880  0.04880  Biso   1.000  H
  H18      1.0000 0.34450  0.04170  0.04170  Biso   1.000  H
  H19      1.0000 0.44140  0.95120  0.95120  Biso   1.000  H
  H20      1.0000 0.65550  0.95830  0.95830  Biso   1.000  H
  H21      1.0000 0.95120  0.95120  0.44140  Biso   1.000  H
  H22      1.0000 0.95830  0.95830  0.65550  Biso   1.000  H
  H23      1.0000 0.95120  0.44140  0.95120  Biso   1.000  H
  H24      1.0000 0.95830  0.65550  0.95830  Biso   1.000  H
  C1       1.0000 0.02770  0.40510  0.53870  Biso   1.000  C
  C2       1.0000 0.53870  0.02770  0.40510  Biso   1.000  C
  C3       1.0000 0.40510  0.53870  0.02770  Biso   1.000  C
  C4       1.0000 0.59490  0.97230  0.46130  Biso   1.000  C
  C5       1.0000 0.97230  0.46130  0.59490  Biso   1.000  C
  C6       1.0000 0.46130  0.59490  0.97230  Biso   1.000  C
  C7       1.0000 0.97230  0.59490  0.46130  Biso   1.000  C
  C8       1.0000 0.46130  0.97230  0.59490  Biso   1.000  C
  C9       1.0000 0.59490  0.46130  0.97230  Biso   1.000  C
  C10      1.0000 0.40510  0.02770  0.53870  Biso   1.000  C
  C11      1.0000 0.02770  0.53870  0.40510  Biso   1.000  C
  C12      1.0000 0.53870  0.40510  0.02770  Biso   1.000  C
  C13      1.0000 0.11130  0.39010  0.11130  Biso   1.000  C
  C14      1.0000 0.05390  0.44400  0.05390  Biso   1.000  C
  C15      1.0000 0.02940  0.53530  0.02940  Biso   1.000  C
  C16      1.0000 0.02520  0.40600  0.02520  Biso   1.000  C
  C17      1.0000 0.11130  0.11130  0.39010  Biso   1.000  C
  C18      1.0000 0.05390  0.05390  0.44400  Biso   1.000  C
  C19      1.0000 0.02940  0.02940  0.53530  Biso   1.000  C
  C20      1.0000 0.02520  0.02520  0.40600  Biso   1.000  C
  C21      1.0000 0.39010  0.11130  0.11130  Biso   1.000  C
  C22      1.0000 0.44400  0.05390  0.05390  Biso   1.000  C
  C23      1.0000 0.53530  0.02940  0.02940  Biso   1.000  C
  C24      1.0000 0.40600  0.02520  0.02520  Biso   1.000  C
  C25      1.0000 0.60990  0.88870  0.88870  Biso   1.000  C
  C26      1.0000 0.55600  0.94610  0.94610  Biso   1.000  C
  C27      1.0000 0.46470  0.97060  0.97060  Biso   1.000  C
  C28      1.0000 0.59400  0.97480  0.97480  Biso   1.000  C
  C29      1.0000 0.88870  0.88870  0.60990  Biso   1.000  C
  C30      1.0000 0.94610  0.94610  0.55600  Biso   1.000  C
  C31      1.0000 0.97060  0.97060  0.46470  Biso   1.000  C
  C32      1.0000 0.97480  0.97480  0.59400  Biso   1.000  C
  C33      1.0000 0.88870  0.60990  0.88870  Biso   1.000  C
  C34      1.0000 0.94610  0.55600  0.94610  Biso   1.000  C
  C35      1.0000 0.97060  0.46470  0.97060  Biso   1.000  C
  C36      1.0000 0.97480  0.59400  0.97480  Biso   1.000  C
  C37      1.0000 0.11170  0.38940  0.38940  Biso   1.000  C
  C38      1.0000 0.05990  0.44245  0.44245  Biso   1.000  C
  C39      1.0000 0.38940  0.11170  0.38940  Biso   1.000  C
  C40      1.0000 0.44245  0.05990  0.44245  Biso   1.000  C
  C41      1.0000 0.38940  0.38940  0.11170  Biso   1.000  C
  C42      1.0000 0.44245  0.44245  0.05990  Biso   1.000  C
  C43      1.0000 0.61060  0.88830  0.61060  Biso   1.000  C
  C44      1.0000 0.55755  0.94010  0.55755  Biso   1.000  C
  C45      1.0000 0.88830  0.61060  0.61060  Biso   1.000  C
  C46      1.0000 0.94010  0.55755  0.55755  Biso   1.000  C
  C47      1.0000 0.61060  0.61060  0.88830  Biso   1.000  C
  C48      1.0000 0.55755  0.55755  0.94010  Biso   1.000  C
  O1       1.0000 0.13529  0.42759  0.30119  Biso   1.000  O
  O2       1.0000 0.30119  0.13529  0.42759  Biso   1.000  O
  O3       1.0000 0.42759  0.30119  0.13529  Biso   1.000  O
  O4       1.0000 0.57241  0.86471  0.69881  Biso   1.000  O
  O5       1.0000 0.86471  0.69881  0.57241  Biso   1.000  O
  O6       1.0000 0.69881  0.57241  0.86471  Biso   1.000  O
  O7       1.0000 0.86471  0.57241  0.69881  Biso   1.000  O
  O8       1.0000 0.69881  0.86471  0.57241  Biso   1.000  O
  O9       1.0000 0.57241  0.69881  0.86471  Biso   1.000  O
  O10      1.0000 0.42759  0.13529  0.30119  Biso   1.000  O
  O11      1.0000 0.13529  0.30119  0.42759  Biso   1.000  O
  O12      1.0000 0.30119  0.42759  0.13529  Biso   1.000  O
  O13      1.0000 0.25153  0.25153  0.25153  Biso   1.000  O
  O14      1.0000 0.74847  0.74847  0.74847  Biso   1.000  O
  O15      1.0000 0.13410  0.30220  0.13410  Biso   1.000  O
  O16      1.0000 0.13380  0.42820  0.13380  Biso   1.000  O
  O17      1.0000 0.13410  0.13410  0.30220  Biso   1.000  O
  O18      1.0000 0.13380  0.13380  0.42820  Biso   1.000  O
  O19      1.0000 0.30220  0.13410  0.13410  Biso   1.000  O
  O20      1.0000 0.42820  0.13380  0.13380  Biso   1.000  O
  O21      1.0000 0.69780  0.86590  0.86590  Biso   1.000  O
  O22      1.0000 0.57180  0.86620  0.86620  Biso   1.000  O
  O23      1.0000 0.86590  0.86590  0.69780  Biso   1.000  O
  O24      1.0000 0.86620  0.86620  0.57180  Biso   1.000  O
  O25      1.0000 0.86590  0.69780  0.86590  Biso   1.000  O
  O26      1.0000 0.86620  0.57180  0.86620  Biso   1.000  O
  Zn9      1.0000 0.00000  0.00000  0.00000  Biso   1.000  Zn
  Zn10     1.0000 0.99900  0.99957  0.82766  Biso   1.000  Zn
  Zn11     1.0000 0.99885  0.82751  0.00000  Biso   1.000  Zn
  Zn12     1.0000 0.82694  0.00000  0.00000  Biso   1.000  Zn
  Zn13     1.0000 0.41725  0.41181  0.41044  Biso   1.000  Zn
  Zn14     1.0000 0.41826  0.41224  0.58278  Biso   1.000  Zn
  Zn15     1.0000 0.59031  0.41181  0.41044  Biso   1.000  Zn
  Zn16     1.0000 0.41840  0.58429  0.41044  Biso   1.000  Zn
  H25      1.0000 0.86359  0.16126  0.16072  Biso   1.000  H
  H26      1.0000 0.16418  0.86364  0.63727  Biso   1.000  H
  H27      1.0000 0.16482  0.63745  0.86216  Biso   1.000  H
  H28      1.0000 0.64191  0.16126  0.16072  Biso   1.000  H
  H29      1.0000 0.86637  0.16245  0.63727  Biso   1.000  H
  H30      1.0000 0.16656  0.63820  0.16072  Biso   1.000  H
  H31      1.0000 0.16141  0.86245  0.16072  Biso   1.000  H
  H32      1.0000 0.64017  0.16051  0.86216  Biso   1.000  H
  H33      1.0000 0.86676  0.63820  0.16072  Biso   1.000  H
  H34      1.0000 0.16165  0.16051  0.86216  Biso   1.000  H
  H35      1.0000 0.16616  0.16245  0.63727  Biso   1.000  H
  H36      1.0000 0.63993  0.86245  0.16072  Biso   1.000  H
  H37      1.0000 0.25585  0.54936  0.24972  Biso   1.000  H
  H38      1.0000 0.55089  0.24936  0.77317  Biso   1.000  H
  H39      1.0000 0.77708  0.25129  0.54828  Biso   1.000  H
  H40      1.0000 0.25069  0.77360  0.24972  Biso   1.000  H
  H41      1.0000 0.25307  0.54817  0.77317  Biso   1.000  H
  H42      1.0000 0.77534  0.25055  0.24972  Biso   1.000  H
  H43      1.0000 0.55366  0.25055  0.24972  Biso   1.000  H
  H44      1.0000 0.25243  0.77435  0.54828  Biso   1.000  H
  H45      1.0000 0.77733  0.54936  0.24972  Biso   1.000  H
  H46      1.0000 0.25560  0.25129  0.54828  Biso   1.000  H
  H47      1.0000 0.25109  0.24936  0.77317  Biso   1.000  H
  H48      1.0000 0.55049  0.77360  0.24972  Biso   1.000  H
  C49      1.0000 0.80208  0.17910  0.17850  Biso   1.000  C
  C50      1.0000 0.18177  0.80217  0.66319  Biso   1.000  C
  C51      1.0000 0.18249  0.66325  0.80068  Biso   1.000  C
  C52      1.0000 0.66816  0.17910  0.17850  Biso   1.000  C
  C53      1.0000 0.80490  0.18031  0.66319  Biso   1.000  C
  C54      1.0000 0.18469  0.66419  0.17850  Biso   1.000  C
  C55      1.0000 0.17895  0.80096  0.17850  Biso   1.000  C
  C56      1.0000 0.66596  0.17815  0.80068  Biso   1.000  C
  C57      1.0000 0.80530  0.66419  0.17850  Biso   1.000  C
  C58      1.0000 0.17927  0.17815  0.80068  Biso   1.000  C
  C59      1.0000 0.18429  0.18031  0.66319  Biso   1.000  C
  C60      1.0000 0.66565  0.80096  0.17850  Biso   1.000  C
  C61      1.0000 0.23830  0.61084  0.23194  Biso   1.000  C
  C62      1.0000 0.61235  0.23150  0.74725  Biso   1.000  C
  C63      1.0000 0.75129  0.23366  0.60976  Biso   1.000  C
  C64      1.0000 0.23257  0.74762  0.23194  Biso   1.000  C
  C65      1.0000 0.23548  0.60963  0.74725  Biso   1.000  C
  C66      1.0000 0.74909  0.23271  0.23194  Biso   1.000  C
  C67      1.0000 0.61517  0.23271  0.23194  Biso   1.000  C
  C68      1.0000 0.23476  0.74856  0.60976  Biso   1.000  C
  C69      1.0000 0.75160  0.61084  0.23194  Biso   1.000  C
  C70      1.0000 0.23799  0.23366  0.60976  Biso   1.000  C
  C71      1.0000 0.23297  0.23150  0.74725  Biso   1.000  C
  C72      1.0000 0.61195  0.74762  0.23194  Biso   1.000  C
  C73      1.0000 0.81959  0.09499  0.09467  Biso   1.000  C
  C74      1.0000 0.76295  0.15229  0.15178  Biso   1.000  C
  C75      1.0000 0.09281  0.81855  0.81915  Biso   1.000  C
  C76      1.0000 0.14945  0.76125  0.76204  Biso   1.000  C
  C77      1.0000 0.81798  0.09430  0.81915  Biso   1.000  C
  C78      1.0000 0.76068  0.15131  0.76204  Biso   1.000  C
  C79      1.0000 0.09441  0.81924  0.09467  Biso   1.000  C
  C80      1.0000 0.15171  0.76223  0.15178  Biso   1.000  C
  C81      1.0000 0.81776  0.81924  0.09467  Biso   1.000  C
  C82      1.0000 0.76036  0.76223  0.15178  Biso   1.000  C
  C83      1.0000 0.09464  0.09430  0.81915  Biso   1.000  C
  C84      1.0000 0.15204  0.15131  0.76204  Biso   1.000  C
  C85      1.0000 0.32284  0.59257  0.31576  Biso   1.000  C
  C86      1.0000 0.26554  0.64958  0.25865  Biso   1.000  C
  C87      1.0000 0.59927  0.31751  0.59128  Biso   1.000  C
  C88      1.0000 0.65657  0.26049  0.64839  Biso   1.000  C
  C89      1.0000 0.32444  0.59325  0.59128  Biso   1.000  C
  C90      1.0000 0.26781  0.65056  0.64839  Biso   1.000  C
  C91      1.0000 0.59767  0.31682  0.31576  Biso   1.000  C
  C92      1.0000 0.65430  0.25952  0.25865  Biso   1.000  C
  C93      1.0000 0.59950  0.59257  0.31576  Biso   1.000  C
  C94      1.0000 0.65689  0.64958  0.25865  Biso   1.000  C
  C95      1.0000 0.32261  0.31751  0.59128  Biso   1.000  C
  C96      1.0000 0.26522  0.26049  0.64839  Biso   1.000  C
  O27      1.0000 0.95620  0.95677  0.95691  Biso   1.000  O
  O28      1.0000 0.46105  0.45504  0.45352  Biso   1.000  O
  O29      1.0000 0.90554  0.07237  0.07213  Biso   1.000  O
  O30      1.0000 0.07051  0.90440  0.77836  Biso   1.000  O
  O31      1.0000 0.07040  0.77794  0.90504  Biso   1.000  O
  O32      1.0000 0.77834  0.07237  0.07213  Biso   1.000  O
  O33      1.0000 0.90383  0.07163  0.77836  Biso   1.000  O
  O34      1.0000 0.07137  0.77836  0.07213  Biso   1.000  O
  O35      1.0000 0.07221  0.90514  0.07213  Biso   1.000  O
  O36      1.0000 0.77737  0.07195  0.90504  Biso   1.000  O
  O37      1.0000 0.90359  0.77836  0.07213  Biso   1.000  O
  O38      1.0000 0.07235  0.07195  0.90504  Biso   1.000  O
  O39      1.0000 0.07162  0.07163  0.77836  Biso   1.000  O
  O40      1.0000 0.77723  0.90514  0.07213  Biso   1.000  O
  O41      1.0000 0.34504  0.50667  0.33831  Biso   1.000  O
  O42      1.0000 0.51342  0.34017  0.63208  Biso   1.000  O
  O43      1.0000 0.63988  0.33986  0.50540  Biso   1.000  O
  O44      1.0000 0.34588  0.63345  0.33831  Biso   1.000  O
  O45      1.0000 0.34675  0.50740  0.63208  Biso   1.000  O
  O46      1.0000 0.63891  0.33944  0.33831  Biso   1.000  O
  O47      1.0000 0.51171  0.33944  0.33831  Biso   1.000  O
  O48      1.0000 0.34685  0.63387  0.50540  Biso   1.000  O
  O49      1.0000 0.64002  0.50667  0.33831  Biso   1.000  O
  O50      1.0000 0.34490  0.33986  0.50540  Biso   1.000  O
  O51      1.0000 0.34564  0.34017  0.63208  Biso   1.000  O
