data_image0
_cell_length_a       18.3149
_cell_length_b       18.3149
_cell_length_c       18.3149
_cell_angle_alpha    60.3295
_cell_angle_beta     60.3295
_cell_angle_gamma    60.3295

_symmetry_space_group_name_H-M    "P 1"
_symmetry_int_tables_number       1

loop_
  _symmetry_equiv_pos_as_xyz
  'x, y, z'

loop_
  _atom_site_label
  _atom_site_occupancy
  _atom_site_fract_x
  _atom_site_fract_y
  _atom_site_fract_z
  _atom_site_thermal_displace_type
  _atom_site_B_iso_or_equiv
  _atom_site_type_symbol
  C1       1.0000 0.20609  0.20609  0.20609  Biso   1.000  C
  C2       1.0000 0.79391  0.79391  0.79391  Biso   1.000  C
  C3       1.0000 0.20677  0.37952  0.20677  Biso   1.000  C
  C4       1.0000 0.20677  0.20677  0.37952  Biso   1.000  C
  C5       1.0000 0.37952  0.20677  0.20677  Biso   1.000  C
  C6       1.0000 0.62048  0.79323  0.79323  Biso   1.000  C
  C7       1.0000 0.79323  0.79323  0.62048  Biso   1.000  C
  C8       1.0000 0.79323  0.62048  0.79323  Biso   1.000  C
  C9       1.0000 0.04260  0.34350  0.56530  Biso   1.000  C
  C10      1.0000 0.56530  0.04260  0.34350  Biso   1.000  C
  C11      1.0000 0.34350  0.56530  0.04260  Biso   1.000  C
  C12      1.0000 0.65650  0.95740  0.43470  Biso   1.000  C
  C13      1.0000 0.95740  0.43470  0.65650  Biso   1.000  C
  C14      1.0000 0.43470  0.65650  0.95740  Biso   1.000  C
  C15      1.0000 0.95740  0.65650  0.43470  Biso   1.000  C
  C16      1.0000 0.43470  0.95740  0.65650  Biso   1.000  C
  C17      1.0000 0.65650  0.43470  0.95740  Biso   1.000  C
  C18      1.0000 0.34350  0.04260  0.56530  Biso   1.000  C
  C19      1.0000 0.04260  0.56530  0.34350  Biso   1.000  C
  C20      1.0000 0.56530  0.34350  0.04260  Biso   1.000  C
  C21      1.0000 0.04880  0.55860  0.04880  Biso   1.000  C
  C22      1.0000 0.04170  0.34450  0.04170  Biso   1.000  C
  C23      1.0000 0.04880  0.04880  0.55860  Biso   1.000  C
  C24      1.0000 0.04170  0.04170  0.34450  Biso   1.000  C
  C25      1.0000 0.55860  0.04880  0.04880  Biso   1.000  C
  C26      1.0000 0.34450  0.04170  0.04170  Biso   1.000  C
  C27      1.0000 0.44140  0.95120  0.95120  Biso   1.000  C
  C28      1.0000 0.65550  0.95830  0.95830  Biso   1.000  C
  C29      1.0000 0.95120  0.95120  0.44140  Biso   1.000  C
  C30      1.0000 0.95830  0.95830  0.65550  Biso   1.000  C
  C31      1.0000 0.95120  0.44140  0.95120  Biso   1.000  C
  C32      1.0000 0.95830  0.65550  0.95830  Biso   1.000  C
  C33      1.0000 0.02770  0.40510  0.53870  Biso   1.000  C
  C34      1.0000 0.53870  0.02770  0.40510  Biso   1.000  C
  C35      1.0000 0.40510  0.53870  0.02770  Biso   1.000  C
  C36      1.0000 0.59490  0.97230  0.46130  Biso   1.000  C
  C37      1.0000 0.97230  0.46130  0.59490  Biso   1.000  C
  C38      1.0000 0.46130  0.59490  0.97230  Biso   1.000  C
  C39      1.0000 0.97230  0.59490  0.46130  Biso   1.000  C
  C40      1.0000 0.46130  0.97230  0.59490  Biso   1.000  C
  C41      1.0000 0.59490  0.46130  0.97230  Biso   1.000  C
  C42      1.0000 0.40510  0.02770  0.53870  Biso   1.000  C
  C43      1.0000 0.02770  0.53870  0.40510  Biso   1.000  C
  C44      1.0000 0.53870  0.40510  0.02770  Biso   1.000  C
  C45      1.0000 0.11130  0.39010  0.11130  Biso   1.000  C
  C46      1.0000 0.05390  0.44400  0.05390  Biso   1.000  C
  C47      1.0000 0.02940  0.53530  0.02940  Biso   1.000  C
  C48      1.0000 0.02520  0.40600  0.02520  Biso   1.000  C
  C49      1.0000 0.11130  0.11130  0.39010  Biso   1.000  C
  C50      1.0000 0.05390  0.05390  0.44400  Biso   1.000  C
  C51      1.0000 0.02940  0.02940  0.53530  Biso   1.000  C
  C52      1.0000 0.02520  0.02520  0.40600  Biso   1.000  C
  C53      1.0000 0.39010  0.11130  0.11130  Biso   1.000  C
  C54      1.0000 0.44400  0.05390  0.05390  Biso   1.000  C
  C55      1.0000 0.53530  0.02940  0.02940  Biso   1.000  C
  C56      1.0000 0.40600  0.02520  0.02520  Biso   1.000  C
  C57      1.0000 0.60990  0.88870  0.88870  Biso   1.000  C
  C58      1.0000 0.55600  0.94610  0.94610  Biso   1.000  C
  C59      1.0000 0.46470  0.97060  0.97060  Biso   1.000  C
  C60      1.0000 0.59400  0.97480  0.97480  Biso   1.000  C
  C61      1.0000 0.88870  0.88870  0.60990  Biso   1.000  C
  C62      1.0000 0.94610  0.94610  0.55600  Biso   1.000  C
  C63      1.0000 0.97060  0.97060  0.46470  Biso   1.000  C
  C64      1.0000 0.97480  0.97480  0.59400  Biso   1.000  C
  C65      1.0000 0.88870  0.60990  0.88870  Biso   1.000  C
  C66      1.0000 0.94610  0.55600  0.94610  Biso   1.000  C
  C67      1.0000 0.97060  0.46470  0.97060  Biso   1.000  C
  C68      1.0000 0.97480  0.59400  0.97480  Biso   1.000  C
  C69      1.0000 0.11170  0.38940  0.38940  Biso   1.000  C
  C70      1.0000 0.05990  0.44245  0.44245  Biso   1.000  C
  C71      1.0000 0.38940  0.11170  0.38940  Biso   1.000  C
  C72      1.0000 0.44245  0.05990  0.44245  Biso   1.000  C
  C73      1.0000 0.38940  0.38940  0.11170  Biso   1.000  C
  C74      1.0000 0.44245  0.44245  0.05990  Biso   1.000  C
  C75      1.0000 0.61060  0.88830  0.61060  Biso   1.000  C
  C76      1.0000 0.55755  0.94010  0.55755  Biso   1.000  C
  C77      1.0000 0.88830  0.61060  0.61060  Biso   1.000  C
  C78      1.0000 0.94010  0.55755  0.55755  Biso   1.000  C
  C79      1.0000 0.61060  0.61060  0.88830  Biso   1.000  C
  C80      1.0000 0.55755  0.55755  0.94010  Biso   1.000  C
  C81      1.0000 0.13529  0.42759  0.30119  Biso   1.000  C
  C82      1.0000 0.30119  0.13529  0.42759  Biso   1.000  C
  C83      1.0000 0.42759  0.30119  0.13529  Biso   1.000  C
  C84      1.0000 0.57241  0.86471  0.69881  Biso   1.000  C
  C85      1.0000 0.86471  0.69881  0.57241  Biso   1.000  C
  C86      1.0000 0.69881  0.57241  0.86471  Biso   1.000  C
  C87      1.0000 0.86471  0.57241  0.69881  Biso   1.000  C
  C88      1.0000 0.69881  0.86471  0.57241  Biso   1.000  C
  C89      1.0000 0.57241  0.69881  0.86471  Biso   1.000  C
  C90      1.0000 0.42759  0.13529  0.30119  Biso   1.000  C
  C91      1.0000 0.13529  0.30119  0.42759  Biso   1.000  C
  C92      1.0000 0.30119  0.42759  0.13529  Biso   1.000  C
  C93      1.0000 0.25153  0.25153  0.25153  Biso   1.000  C
  C94      1.0000 0.74847  0.74847  0.74847  Biso   1.000  C
  C95      1.0000 0.13410  0.30220  0.13410  Biso   1.000  C
  C96      1.0000 0.13380  0.42820  0.13380  Biso   1.000  C
  C97      1.0000 0.13410  0.13410  0.30220  Biso   1.000  C
  C98      1.0000 0.13380  0.13380  0.42820  Biso   1.000  C
  C99      1.0000 0.30220  0.13410  0.13410  Biso   1.000  C
  C100     1.0000 0.42820  0.13380  0.13380  Biso   1.000  C
  C101     1.0000 0.69780  0.86590  0.86590  Biso   1.000  C
  C102     1.0000 0.57180  0.86620  0.86620  Biso   1.000  C
  C103     1.0000 0.86590  0.86590  0.69780  Biso   1.000  C
  C104     1.0000 0.86620  0.86620  0.57180  Biso   1.000  C
  C105     1.0000 0.86590  0.69780  0.86590  Biso   1.000  C
  C106     1.0000 0.86620  0.57180  0.86620  Biso   1.000  C
  O1       1.0000 0.00000  0.00000  0.00000  Biso   1.000  O
  O2       1.0000 0.41468  0.58228  0.41688  Biso   1.000  O
  O3       1.0000 0.41352  0.40858  0.41688  Biso   1.000  O
  O4       1.0000 0.99885  0.82629  0.00000  Biso   1.000  O
  O5       1.0000 0.99853  0.99990  0.82622  Biso   1.000  O
  O6       1.0000 0.82532  0.00015  0.00010  Biso   1.000  O
  O7       1.0000 0.41499  0.40868  0.59066  Biso   1.000  O
  O8       1.0000 0.58820  0.40843  0.41678  Biso   1.000  O
  O9       1.0000 0.16940  0.64081  0.85751  Biso   1.000  O
  O10      1.0000 0.15327  0.86036  0.64740  Biso   1.000  O
  O11      1.0000 0.86832  0.64264  0.15894  Biso   1.000  O
  O12      1.0000 0.64294  0.85914  0.16122  Biso   1.000  O
  O13      1.0000 0.16677  0.86111  0.15646  Biso   1.000  O
  O14      1.0000 0.24733  0.24991  0.55936  Biso   1.000  O
  O15      1.0000 0.25826  0.24725  0.76948  Biso   1.000  O
  O16      1.0000 0.54842  0.25007  0.25794  Biso   1.000  O
  O17      1.0000 0.76857  0.24609  0.25565  Biso   1.000  O
  O18      1.0000 0.24158  0.76873  0.26042  Biso   1.000  O
  O19      1.0000 0.24412  0.76777  0.55936  Biso   1.000  O
  O20      1.0000 0.26026  0.54821  0.76948  Biso   1.000  O
  O21      1.0000 0.54520  0.76594  0.25794  Biso   1.000  O
  O22      1.0000 0.77059  0.54944  0.25565  Biso   1.000  O
  O23      1.0000 0.24676  0.54746  0.26042  Biso   1.000  O
  O24      1.0000 0.16620  0.15867  0.85751  Biso   1.000  O
  O25      1.0000 0.15527  0.16133  0.64740  Biso   1.000  O
  O26      1.0000 0.86511  0.15851  0.15894  Biso   1.000  O
  O27      1.0000 0.64496  0.16249  0.16122  Biso   1.000  O
  O28      1.0000 0.17194  0.63985  0.15646  Biso   1.000  O
  O29      1.0000 0.64407  0.16056  0.85960  Biso   1.000  O
  O30      1.0000 0.85599  0.16113  0.64512  Biso   1.000  O
  O31      1.0000 0.76945  0.24802  0.55728  Biso   1.000  O
  O32      1.0000 0.55754  0.24745  0.77176  Biso   1.000  O
  O33      1.0000 0.09172  0.81738  0.82139  Biso   1.000  O
  O34      1.0000 0.15037  0.75953  0.76065  Biso   1.000  O
  O35      1.0000 0.18695  0.66618  0.79578  Biso   1.000  O
  O36      1.0000 0.17234  0.79874  0.67320  Biso   1.000  O
  O37      1.0000 0.81521  0.82124  0.09641  Biso   1.000  O
  O38      1.0000 0.76123  0.76326  0.15130  Biso   1.000  O
  O39      1.0000 0.80662  0.66870  0.17681  Biso   1.000  O
  O40      1.0000 0.67024  0.79760  0.17859  Biso   1.000  O
  O41      1.0000 0.18232  0.79948  0.17641  Biso   1.000  O
  O42      1.0000 0.31998  0.31546  0.59549  Biso   1.000  O
  O43      1.0000 0.26054  0.25631  0.65623  Biso   1.000  O
  O44      1.0000 0.22983  0.23149  0.62110  Biso   1.000  O
  O45      1.0000 0.23866  0.23060  0.74367  Biso   1.000  O
  O46      1.0000 0.59651  0.31598  0.32047  Biso   1.000  O
  O47      1.0000 0.64972  0.25893  0.26558  Biso   1.000  O
  O48      1.0000 0.61018  0.23215  0.24007  Biso   1.000  O
  O49      1.0000 0.74075  0.22936  0.23829  Biso   1.000  O
  O50      1.0000 0.22545  0.74276  0.24047  Biso   1.000  O
  O51      1.0000 0.32181  0.59120  0.59549  Biso   1.000  O
  O52      1.0000 0.26315  0.64905  0.65623  Biso   1.000  O
  O53      1.0000 0.22658  0.74240  0.62110  Biso   1.000  O
  O54      1.0000 0.24118  0.60983  0.74367  Biso   1.000  O
  O55      1.0000 0.59831  0.58734  0.32047  Biso   1.000  O
  O56      1.0000 0.65229  0.64532  0.26558  Biso   1.000  O
  O57      1.0000 0.60691  0.73987  0.24007  Biso   1.000  O
  O58      1.0000 0.74329  0.61098  0.23829  Biso   1.000  O
  O59      1.0000 0.23120  0.60910  0.24047  Biso   1.000  O
  O60      1.0000 0.09355  0.09312  0.82139  Biso   1.000  O
  O61      1.0000 0.15298  0.15227  0.76065  Biso   1.000  O
  O62      1.0000 0.18370  0.17709  0.79578  Biso   1.000  O
  O63      1.0000 0.17486  0.17798  0.67320  Biso   1.000  O
  O64      1.0000 0.81702  0.09260  0.09641  Biso   1.000  O
  O65      1.0000 0.76380  0.14965  0.15130  Biso   1.000  O
  O66      1.0000 0.80335  0.17643  0.17681  Biso   1.000  O
  O67      1.0000 0.67277  0.17922  0.17859  Biso   1.000  O
  O68      1.0000 0.18808  0.66582  0.17641  Biso   1.000  O
  O69      1.0000 0.82205  0.09390  0.81464  Biso   1.000  O
  O70      1.0000 0.76014  0.15059  0.76283  Biso   1.000  O
  O71      1.0000 0.67093  0.17769  0.79806  Biso   1.000  O
  O72      1.0000 0.79437  0.17857  0.67201  Biso   1.000  O
  O73      1.0000 0.09182  0.82300  0.08847  Biso   1.000  O
  O74      1.0000 0.15158  0.76187  0.15140  Biso   1.000  O
  O75      1.0000 0.59147  0.31468  0.60224  Biso   1.000  O
  O76      1.0000 0.65339  0.25799  0.65405  Biso   1.000  O
  O77      1.0000 0.74259  0.23089  0.61882  Biso   1.000  O
  O78      1.0000 0.61915  0.23001  0.74486  Biso   1.000  O
  O79      1.0000 0.32170  0.58557  0.32841  Biso   1.000  O
  O80      1.0000 0.26195  0.64671  0.26548  Biso   1.000  O
  O81      1.0000 0.07198  0.90210  0.77583  Biso   1.000  O
  O82      1.0000 0.07318  0.77398  0.90496  Biso   1.000  O
  O83      1.0000 0.77584  0.90381  0.07011  Biso   1.000  O
  O84      1.0000 0.90079  0.77738  0.07408  Biso   1.000  O
  O85      1.0000 0.07323  0.90481  0.07130  Biso   1.000  O
  O86      1.0000 0.34040  0.33484  0.64105  Biso   1.000  O
  O87      1.0000 0.33836  0.33661  0.51192  Biso   1.000  O
  O88      1.0000 0.63654  0.33273  0.34677  Biso   1.000  O
  O89      1.0000 0.51077  0.33560  0.34280  Biso   1.000  O
  O90      1.0000 0.34114  0.63131  0.34558  Biso   1.000  O
  O91      1.0000 0.34154  0.50648  0.64105  Biso   1.000  O
  O92      1.0000 0.34034  0.63460  0.51192  Biso   1.000  O
  O93      1.0000 0.63768  0.50477  0.34677  Biso   1.000  O
  O94      1.0000 0.51273  0.63120  0.34280  Biso   1.000  O
  O95      1.0000 0.34029  0.50377  0.34558  Biso   1.000  O
  O96      1.0000 0.07312  0.07374  0.77583  Biso   1.000  O
  O97      1.0000 0.07516  0.07197  0.90496  Biso   1.000  O
  O98      1.0000 0.77699  0.07585  0.07011  Biso   1.000  O
  O99      1.0000 0.90276  0.07298  0.07408  Biso   1.000  O
  O100     1.0000 0.07238  0.77727  0.07130  Biso   1.000  O
  O101     1.0000 0.95640  0.95638  0.95627  Biso   1.000  O
  O102     1.0000 0.90221  0.07275  0.77653  Biso   1.000  O
  O103     1.0000 0.77737  0.07533  0.89702  Biso   1.000  O
  O104     1.0000 0.45712  0.45220  0.46061  Biso   1.000  O
  O105     1.0000 0.51131  0.33583  0.64035  Biso   1.000  O
