data_image0
_cell_length_a       18.3149
_cell_length_b       18.3149
_cell_length_c       18.3149
_cell_angle_alpha    60.3295
_cell_angle_beta     60.3295
_cell_angle_gamma    60.3295

_symmetry_space_group_name_H-M    "P 1"
_symmetry_int_tables_number       1

loop_
  _symmetry_equiv_pos_as_xyz
  'x, y, z'

loop_
  _atom_site_label
  _atom_site_occupancy
  _atom_site_fract_x
  _atom_site_fract_y
  _atom_site_fract_z
  _atom_site_thermal_displace_type
  _atom_site_B_iso_or_equiv
  _atom_site_type_symbol
  Zn1      1.0000 0.20609  0.20609  0.20609  Biso   1.000  Zn
  Zn2      1.0000 0.79391  0.79391  0.79391  Biso   1.000  Zn
  Zn3      1.0000 0.20677  0.37952  0.20677  Biso   1.000  Zn
  Zn4      1.0000 0.20677  0.20677  0.37952  Biso   1.000  Zn
  Zn5      1.0000 0.37952  0.20677  0.20677  Biso   1.000  Zn
  Zn6      1.0000 0.62048  0.79323  0.79323  Biso   1.000  Zn
  Zn7      1.0000 0.79323  0.79323  0.62048  Biso   1.000  Zn
  Zn8      1.0000 0.79323  0.62048  0.79323  Biso   1.000  Zn
  H1       1.0000 0.04260  0.34350  0.56530  Biso   1.000  H
  H2       1.0000 0.56530  0.04260  0.34350  Biso   1.000  H
  H3       1.0000 0.34350  0.56530  0.04260  Biso   1.000  H
  H4       1.0000 0.65650  0.95740  0.43470  Biso   1.000  H
  H5       1.0000 0.95740  0.43470  0.65650  Biso   1.000  H
  H6       1.0000 0.43470  0.65650  0.95740  Biso   1.000  H
  H7       1.0000 0.95740  0.65650  0.43470  Biso   1.000  H
  H8       1.0000 0.43470  0.95740  0.65650  Biso   1.000  H
  H9       1.0000 0.65650  0.43470  0.95740  Biso   1.000  H
  H10      1.0000 0.34350  0.04260  0.56530  Biso   1.000  H
  H11      1.0000 0.04260  0.56530  0.34350  Biso   1.000  H
  H12      1.0000 0.56530  0.34350  0.04260  Biso   1.000  H
  H13      1.0000 0.04880  0.55860  0.04880  Biso   1.000  H
  H14      1.0000 0.04170  0.34450  0.04170  Biso   1.000  H
  H15      1.0000 0.04880  0.04880  0.55860  Biso   1.000  H
  H16      1.0000 0.04170  0.04170  0.34450  Biso   1.000  H
  H17      1.0000 0.55860  0.04880  0.04880  Biso   1.000  H
  H18      1.0000 0.34450  0.04170  0.04170  Biso   1.000  H
  H19      1.0000 0.44140  0.95120  0.95120  Biso   1.000  H
  H20      1.0000 0.65550  0.95830  0.95830  Biso   1.000  H
  H21      1.0000 0.95120  0.95120  0.44140  Biso   1.000  H
  H22      1.0000 0.95830  0.95830  0.65550  Biso   1.000  H
  H23      1.0000 0.95120  0.44140  0.95120  Biso   1.000  H
  H24      1.0000 0.95830  0.65550  0.95830  Biso   1.000  H
  C1       1.0000 0.02770  0.40510  0.53870  Biso   1.000  C
  C2       1.0000 0.53870  0.02770  0.40510  Biso   1.000  C
  C3       1.0000 0.40510  0.53870  0.02770  Biso   1.000  C
  C4       1.0000 0.59490  0.97230  0.46130  Biso   1.000  C
  C5       1.0000 0.97230  0.46130  0.59490  Biso   1.000  C
  C6       1.0000 0.46130  0.59490  0.97230  Biso   1.000  C
  C7       1.0000 0.97230  0.59490  0.46130  Biso   1.000  C
  C8       1.0000 0.46130  0.97230  0.59490  Biso   1.000  C
  C9       1.0000 0.59490  0.46130  0.97230  Biso   1.000  C
  C10      1.0000 0.40510  0.02770  0.53870  Biso   1.000  C
  C11      1.0000 0.02770  0.53870  0.40510  Biso   1.000  C
  C12      1.0000 0.53870  0.40510  0.02770  Biso   1.000  C
  C13      1.0000 0.11130  0.39010  0.11130  Biso   1.000  C
  C14      1.0000 0.05390  0.44400  0.05390  Biso   1.000  C
  C15      1.0000 0.02940  0.53530  0.02940  Biso   1.000  C
  C16      1.0000 0.02520  0.40600  0.02520  Biso   1.000  C
  C17      1.0000 0.11130  0.11130  0.39010  Biso   1.000  C
  C18      1.0000 0.05390  0.05390  0.44400  Biso   1.000  C
  C19      1.0000 0.02940  0.02940  0.53530  Biso   1.000  C
  C20      1.0000 0.02520  0.02520  0.40600  Biso   1.000  C
  C21      1.0000 0.39010  0.11130  0.11130  Biso   1.000  C
  C22      1.0000 0.44400  0.05390  0.05390  Biso   1.000  C
  C23      1.0000 0.53530  0.02940  0.02940  Biso   1.000  C
  C24      1.0000 0.40600  0.02520  0.02520  Biso   1.000  C
  C25      1.0000 0.60990  0.88870  0.88870  Biso   1.000  C
  C26      1.0000 0.55600  0.94610  0.94610  Biso   1.000  C
  C27      1.0000 0.46470  0.97060  0.97060  Biso   1.000  C
  C28      1.0000 0.59400  0.97480  0.97480  Biso   1.000  C
  C29      1.0000 0.88870  0.88870  0.60990  Biso   1.000  C
  C30      1.0000 0.94610  0.94610  0.55600  Biso   1.000  C
  C31      1.0000 0.97060  0.97060  0.46470  Biso   1.000  C
  C32      1.0000 0.97480  0.97480  0.59400  Biso   1.000  C
  C33      1.0000 0.88870  0.60990  0.88870  Biso   1.000  C
  C34      1.0000 0.94610  0.55600  0.94610  Biso   1.000  C
  C35      1.0000 0.97060  0.46470  0.97060  Biso   1.000  C
  C36      1.0000 0.97480  0.59400  0.97480  Biso   1.000  C
  C37      1.0000 0.11170  0.38940  0.38940  Biso   1.000  C
  C38      1.0000 0.05990  0.44245  0.44245  Biso   1.000  C
  C39      1.0000 0.38940  0.11170  0.38940  Biso   1.000  C
  C40      1.0000 0.44245  0.05990  0.44245  Biso   1.000  C
  C41      1.0000 0.38940  0.38940  0.11170  Biso   1.000  C
  C42      1.0000 0.44245  0.44245  0.05990  Biso   1.000  C
  C43      1.0000 0.61060  0.88830  0.61060  Biso   1.000  C
  C44      1.0000 0.55755  0.94010  0.55755  Biso   1.000  C
  C45      1.0000 0.88830  0.61060  0.61060  Biso   1.000  C
  C46      1.0000 0.94010  0.55755  0.55755  Biso   1.000  C
  C47      1.0000 0.61060  0.61060  0.88830  Biso   1.000  C
  C48      1.0000 0.55755  0.55755  0.94010  Biso   1.000  C
  O1       1.0000 0.13529  0.42759  0.30119  Biso   1.000  O
  O2       1.0000 0.30119  0.13529  0.42759  Biso   1.000  O
  O3       1.0000 0.42759  0.30119  0.13529  Biso   1.000  O
  O4       1.0000 0.57241  0.86471  0.69881  Biso   1.000  O
  O5       1.0000 0.86471  0.69881  0.57241  Biso   1.000  O
  O6       1.0000 0.69881  0.57241  0.86471  Biso   1.000  O
  O7       1.0000 0.86471  0.57241  0.69881  Biso   1.000  O
  O8       1.0000 0.69881  0.86471  0.57241  Biso   1.000  O
  O9       1.0000 0.57241  0.69881  0.86471  Biso   1.000  O
  O10      1.0000 0.42759  0.13529  0.30119  Biso   1.000  O
  O11      1.0000 0.13529  0.30119  0.42759  Biso   1.000  O
  O12      1.0000 0.30119  0.42759  0.13529  Biso   1.000  O
  O13      1.0000 0.25153  0.25153  0.25153  Biso   1.000  O
  O14      1.0000 0.74847  0.74847  0.74847  Biso   1.000  O
  O15      1.0000 0.13410  0.30220  0.13410  Biso   1.000  O
  O16      1.0000 0.13380  0.42820  0.13380  Biso   1.000  O
  O17      1.0000 0.13410  0.13410  0.30220  Biso   1.000  O
  O18      1.0000 0.13380  0.13380  0.42820  Biso   1.000  O
  O19      1.0000 0.30220  0.13410  0.13410  Biso   1.000  O
  O20      1.0000 0.42820  0.13380  0.13380  Biso   1.000  O
  O21      1.0000 0.69780  0.86590  0.86590  Biso   1.000  O
  O22      1.0000 0.57180  0.86620  0.86620  Biso   1.000  O
  O23      1.0000 0.86590  0.86590  0.69780  Biso   1.000  O
  O24      1.0000 0.86620  0.86620  0.57180  Biso   1.000  O
  O25      1.0000 0.86590  0.69780  0.86590  Biso   1.000  O
  O26      1.0000 0.86620  0.57180  0.86620  Biso   1.000  O
  Zn9      1.0000 0.00000  0.00000  0.00000  Biso   1.000  Zn
  Zn10     1.0000 0.00101  0.00043  0.17291  Biso   1.000  Zn
  Zn11     1.0000 0.82738  0.00043  0.17291  Biso   1.000  Zn
  Zn12     1.0000 0.99986  0.82738  0.17291  Biso   1.000  Zn
  Zn13     1.0000 0.41897  0.41240  0.75599  Biso   1.000  Zn
  Zn14     1.0000 0.41796  0.41196  0.58308  Biso   1.000  Zn
  Zn15     1.0000 0.41911  0.58502  0.58308  Biso   1.000  Zn
  Zn16     1.0000 0.59159  0.41196  0.58308  Biso   1.000  Zn
  H25      1.0000 0.16753  0.16324  0.81094  Biso   1.000  H
  H26      1.0000 0.16300  0.16130  0.03304  Biso   1.000  H
  H27      1.0000 0.64168  0.86085  0.33399  Biso   1.000  H
  H28      1.0000 0.86573  0.63940  0.33399  Biso   1.000  H
  H29      1.0000 0.16617  0.63864  0.03304  Biso   1.000  H
  H30      1.0000 0.16553  0.86205  0.81094  Biso   1.000  H
  H31      1.0000 0.64368  0.16205  0.33399  Biso   1.000  H
  H32      1.0000 0.86256  0.16205  0.33399  Biso   1.000  H
  H33      1.0000 0.16275  0.86085  0.33399  Biso   1.000  H
  H34      1.0000 0.16792  0.63940  0.33399  Biso   1.000  H
  H35      1.0000 0.64192  0.16130  0.03304  Biso   1.000  H
  H36      1.0000 0.86533  0.16324  0.81094  Biso   1.000  H
  H37      1.0000 0.25144  0.24915  0.94504  Biso   1.000  H
  H38      1.0000 0.25597  0.25110  0.72294  Biso   1.000  H
  H39      1.0000 0.55324  0.77300  0.42199  Biso   1.000  H
  H40      1.0000 0.77729  0.55154  0.42199  Biso   1.000  H
  H41      1.0000 0.77704  0.25110  0.72294  Biso   1.000  H
  H42      1.0000 0.55363  0.24915  0.94504  Biso   1.000  H
  H43      1.0000 0.25104  0.77300  0.42199  Biso   1.000  H
  H44      1.0000 0.25621  0.55154  0.42199  Biso   1.000  H
  H45      1.0000 0.55641  0.25035  0.42199  Biso   1.000  H
  H46      1.0000 0.77529  0.25035  0.42199  Biso   1.000  H
  H47      1.0000 0.25280  0.77375  0.72294  Biso   1.000  H
  H48      1.0000 0.25344  0.55035  0.94504  Biso   1.000  H
  C49      1.0000 0.18547  0.18093  0.83732  Biso   1.000  C
  C50      1.0000 0.18043  0.17876  0.97146  Biso   1.000  C
  C51      1.0000 0.66786  0.79926  0.35159  Biso   1.000  C
  C52      1.0000 0.80417  0.66584  0.35159  Biso   1.000  C
  C53      1.0000 0.18366  0.66489  0.97146  Biso   1.000  C
  C54      1.0000 0.18295  0.80048  0.83732  Biso   1.000  C
  C55      1.0000 0.67038  0.17971  0.35159  Biso   1.000  C
  C56      1.0000 0.80094  0.17971  0.35159  Biso   1.000  C
  C57      1.0000 0.18012  0.79926  0.35159  Biso   1.000  C
  C58      1.0000 0.18587  0.66584  0.35159  Biso   1.000  C
  C59      1.0000 0.66817  0.17876  0.97146  Biso   1.000  C
  C60      1.0000 0.80377  0.18093  0.83732  Biso   1.000  C
  C61      1.0000 0.23350  0.23147  0.91866  Biso   1.000  C
  C62      1.0000 0.23853  0.23364  0.78452  Biso   1.000  C
  C63      1.0000 0.61480  0.74655  0.40439  Biso   1.000  C
  C64      1.0000 0.75111  0.61313  0.40439  Biso   1.000  C
  C65      1.0000 0.75079  0.23364  0.78452  Biso   1.000  C
  C66      1.0000 0.61520  0.23147  0.91866  Biso   1.000  C
  C67      1.0000 0.23309  0.74655  0.40439  Biso   1.000  C
  C68      1.0000 0.23885  0.61313  0.40439  Biso   1.000  C
  C69      1.0000 0.61802  0.23269  0.40439  Biso   1.000  C
  C70      1.0000 0.74858  0.23269  0.40439  Biso   1.000  C
  C71      1.0000 0.23531  0.74750  0.78452  Biso   1.000  C
  C72      1.0000 0.23602  0.61192  0.91866  Biso   1.000  C
  C73      1.0000 0.09538  0.09448  0.99204  Biso   1.000  C
  C74      1.0000 0.15294  0.15166  0.93476  Biso   1.000  C
  C75      1.0000 0.81873  0.81965  0.26733  Biso   1.000  C
  C76      1.0000 0.76116  0.76247  0.32461  Biso   1.000  C
  C77      1.0000 0.09355  0.81896  0.99204  Biso   1.000  C
  C78      1.0000 0.15035  0.76149  0.93476  Biso   1.000  C
  C79      1.0000 0.82056  0.09516  0.26733  Biso   1.000  C
  C80      1.0000 0.76375  0.15263  0.32461  Biso   1.000  C
  C81      1.0000 0.09515  0.81965  0.26733  Biso   1.000  C
  C82      1.0000 0.15262  0.76247  0.32461  Biso   1.000  C
  C83      1.0000 0.81896  0.09448  0.99204  Biso   1.000  C
  C84      1.0000 0.76149  0.15166  0.93476  Biso   1.000  C
  C85      1.0000 0.32359  0.31792  0.76394  Biso   1.000  C
  C86      1.0000 0.26602  0.26074  0.82122  Biso   1.000  C
  C87      1.0000 0.60024  0.59275  0.48866  Biso   1.000  C
  C88      1.0000 0.65780  0.64993  0.43138  Biso   1.000  C
  C89      1.0000 0.60001  0.31792  0.76394  Biso   1.000  C
  C90      1.0000 0.65748  0.26074  0.82122  Biso   1.000  C
  C91      1.0000 0.32382  0.59275  0.48866  Biso   1.000  C
  C92      1.0000 0.26635  0.64993  0.43138  Biso   1.000  C
  C93      1.0000 0.59841  0.31723  0.48866  Biso   1.000  C
  C94      1.0000 0.65521  0.25976  0.43138  Biso   1.000  C
  C95      1.0000 0.32542  0.59343  0.76394  Biso   1.000  C
  C96      1.0000 0.26862  0.65091  0.82122  Biso   1.000  C
  O27      1.0000 0.95705  0.95706  0.12969  Biso   1.000  O
  O28      1.0000 0.46191  0.45533  0.62630  Biso   1.000  O
  O29      1.0000 0.07266  0.07210  0.95376  Biso   1.000  O
  O30      1.0000 0.07336  0.07241  0.07485  Biso   1.000  O
  O31      1.0000 0.78070  0.90247  0.24507  Biso   1.000  O
  O32      1.0000 0.90149  0.78127  0.24507  Biso   1.000  O
  O33      1.0000 0.07143  0.78085  0.07485  Biso   1.000  O
  O34      1.0000 0.07153  0.90174  0.95376  Biso   1.000  O
  O35      1.0000 0.78183  0.07283  0.24507  Biso   1.000  O
  O36      1.0000 0.90343  0.07283  0.24507  Biso   1.000  O
  O37      1.0000 0.07322  0.90247  0.24507  Biso   1.000  O
  O38      1.0000 0.07242  0.78127  0.24507  Biso   1.000  O
  O39      1.0000 0.78084  0.07241  0.07485  Biso   1.000  O
  O40      1.0000 0.90173  0.07210  0.95376  Biso   1.000  O
  O41      1.0000 0.34631  0.34029  0.80223  Biso   1.000  O
  O42      1.0000 0.34561  0.33999  0.68114  Biso   1.000  O
  O43      1.0000 0.51747  0.63112  0.51092  Biso   1.000  O
  O44      1.0000 0.63827  0.50993  0.51092  Biso   1.000  O
  O45      1.0000 0.63813  0.33999  0.68114  Biso   1.000  O
  O46      1.0000 0.51723  0.34029  0.80223  Biso   1.000  O
  O47      1.0000 0.34655  0.63112  0.51092  Biso   1.000  O
  O48      1.0000 0.34575  0.50993  0.51092  Biso   1.000  O
  O49      1.0000 0.51554  0.33957  0.51092  Biso   1.000  O
  O50      1.0000 0.63713  0.33957  0.51092  Biso   1.000  O
  O51      1.0000 0.34754  0.63155  0.68114  Biso   1.000  O
