data_image0
_cell_length_a       18.3149
_cell_length_b       18.3149
_cell_length_c       18.3149
_cell_angle_alpha    60.3295
_cell_angle_beta     60.3295
_cell_angle_gamma    60.3295

_symmetry_space_group_name_H-M    "P 1"
_symmetry_int_tables_number       1

loop_
  _symmetry_equiv_pos_as_xyz
  'x, y, z'

loop_
  _atom_site_label
  _atom_site_occupancy
  _atom_site_fract_x
  _atom_site_fract_y
  _atom_site_fract_z
  _atom_site_thermal_displace_type
  _atom_site_B_iso_or_equiv
  _atom_site_type_symbol
  C1       1.0000 0.20609  0.20609  0.20609  Biso   1.000  C
  C2       1.0000 0.79391  0.79391  0.79391  Biso   1.000  C
  C3       1.0000 0.20677  0.37952  0.20677  Biso   1.000  C
  C4       1.0000 0.20677  0.20677  0.37952  Biso   1.000  C
  C5       1.0000 0.37952  0.20677  0.20677  Biso   1.000  C
  C6       1.0000 0.62048  0.79323  0.79323  Biso   1.000  C
  C7       1.0000 0.79323  0.79323  0.62048  Biso   1.000  C
  C8       1.0000 0.79323  0.62048  0.79323  Biso   1.000  C
  C9       1.0000 0.04260  0.34350  0.56530  Biso   1.000  C
  C10      1.0000 0.56530  0.04260  0.34350  Biso   1.000  C
  C11      1.0000 0.34350  0.56530  0.04260  Biso   1.000  C
  C12      1.0000 0.65650  0.95740  0.43470  Biso   1.000  C
  C13      1.0000 0.95740  0.43470  0.65650  Biso   1.000  C
  C14      1.0000 0.43470  0.65650  0.95740  Biso   1.000  C
  C15      1.0000 0.95740  0.65650  0.43470  Biso   1.000  C
  C16      1.0000 0.43470  0.95740  0.65650  Biso   1.000  C
  C17      1.0000 0.65650  0.43470  0.95740  Biso   1.000  C
  C18      1.0000 0.34350  0.04260  0.56530  Biso   1.000  C
  C19      1.0000 0.04260  0.56530  0.34350  Biso   1.000  C
  C20      1.0000 0.56530  0.34350  0.04260  Biso   1.000  C
  C21      1.0000 0.04880  0.55860  0.04880  Biso   1.000  C
  C22      1.0000 0.04170  0.34450  0.04170  Biso   1.000  C
  C23      1.0000 0.04880  0.04880  0.55860  Biso   1.000  C
  C24      1.0000 0.04170  0.04170  0.34450  Biso   1.000  C
  C25      1.0000 0.55860  0.04880  0.04880  Biso   1.000  C
  C26      1.0000 0.34450  0.04170  0.04170  Biso   1.000  C
  C27      1.0000 0.44140  0.95120  0.95120  Biso   1.000  C
  C28      1.0000 0.65550  0.95830  0.95830  Biso   1.000  C
  C29      1.0000 0.95120  0.95120  0.44140  Biso   1.000  C
  C30      1.0000 0.95830  0.95830  0.65550  Biso   1.000  C
  C31      1.0000 0.95120  0.44140  0.95120  Biso   1.000  C
  C32      1.0000 0.95830  0.65550  0.95830  Biso   1.000  C
  C33      1.0000 0.02770  0.40510  0.53870  Biso   1.000  C
  C34      1.0000 0.53870  0.02770  0.40510  Biso   1.000  C
  C35      1.0000 0.40510  0.53870  0.02770  Biso   1.000  C
  C36      1.0000 0.59490  0.97230  0.46130  Biso   1.000  C
  C37      1.0000 0.97230  0.46130  0.59490  Biso   1.000  C
  C38      1.0000 0.46130  0.59490  0.97230  Biso   1.000  C
  C39      1.0000 0.97230  0.59490  0.46130  Biso   1.000  C
  C40      1.0000 0.46130  0.97230  0.59490  Biso   1.000  C
  C41      1.0000 0.59490  0.46130  0.97230  Biso   1.000  C
  C42      1.0000 0.40510  0.02770  0.53870  Biso   1.000  C
  C43      1.0000 0.02770  0.53870  0.40510  Biso   1.000  C
  C44      1.0000 0.53870  0.40510  0.02770  Biso   1.000  C
  C45      1.0000 0.11130  0.39010  0.11130  Biso   1.000  C
  C46      1.0000 0.05390  0.44400  0.05390  Biso   1.000  C
  C47      1.0000 0.02940  0.53530  0.02940  Biso   1.000  C
  C48      1.0000 0.02520  0.40600  0.02520  Biso   1.000  C
  C49      1.0000 0.11130  0.11130  0.39010  Biso   1.000  C
  C50      1.0000 0.05390  0.05390  0.44400  Biso   1.000  C
  C51      1.0000 0.02940  0.02940  0.53530  Biso   1.000  C
  C52      1.0000 0.02520  0.02520  0.40600  Biso   1.000  C
  C53      1.0000 0.39010  0.11130  0.11130  Biso   1.000  C
  C54      1.0000 0.44400  0.05390  0.05390  Biso   1.000  C
  C55      1.0000 0.53530  0.02940  0.02940  Biso   1.000  C
  C56      1.0000 0.40600  0.02520  0.02520  Biso   1.000  C
  C57      1.0000 0.60990  0.88870  0.88870  Biso   1.000  C
  C58      1.0000 0.55600  0.94610  0.94610  Biso   1.000  C
  C59      1.0000 0.46470  0.97060  0.97060  Biso   1.000  C
  C60      1.0000 0.59400  0.97480  0.97480  Biso   1.000  C
  C61      1.0000 0.88870  0.88870  0.60990  Biso   1.000  C
  C62      1.0000 0.94610  0.94610  0.55600  Biso   1.000  C
  C63      1.0000 0.97060  0.97060  0.46470  Biso   1.000  C
  C64      1.0000 0.97480  0.97480  0.59400  Biso   1.000  C
  C65      1.0000 0.88870  0.60990  0.88870  Biso   1.000  C
  C66      1.0000 0.94610  0.55600  0.94610  Biso   1.000  C
  C67      1.0000 0.97060  0.46470  0.97060  Biso   1.000  C
  C68      1.0000 0.97480  0.59400  0.97480  Biso   1.000  C
  C69      1.0000 0.11170  0.38940  0.38940  Biso   1.000  C
  C70      1.0000 0.05990  0.44245  0.44245  Biso   1.000  C
  C71      1.0000 0.38940  0.11170  0.38940  Biso   1.000  C
  C72      1.0000 0.44245  0.05990  0.44245  Biso   1.000  C
  C73      1.0000 0.38940  0.38940  0.11170  Biso   1.000  C
  C74      1.0000 0.44245  0.44245  0.05990  Biso   1.000  C
  C75      1.0000 0.61060  0.88830  0.61060  Biso   1.000  C
  C76      1.0000 0.55755  0.94010  0.55755  Biso   1.000  C
  C77      1.0000 0.88830  0.61060  0.61060  Biso   1.000  C
  C78      1.0000 0.94010  0.55755  0.55755  Biso   1.000  C
  C79      1.0000 0.61060  0.61060  0.88830  Biso   1.000  C
  C80      1.0000 0.55755  0.55755  0.94010  Biso   1.000  C
  C81      1.0000 0.13529  0.42759  0.30119  Biso   1.000  C
  C82      1.0000 0.30119  0.13529  0.42759  Biso   1.000  C
  C83      1.0000 0.42759  0.30119  0.13529  Biso   1.000  C
  C84      1.0000 0.57241  0.86471  0.69881  Biso   1.000  C
  C85      1.0000 0.86471  0.69881  0.57241  Biso   1.000  C
  C86      1.0000 0.69881  0.57241  0.86471  Biso   1.000  C
  C87      1.0000 0.86471  0.57241  0.69881  Biso   1.000  C
  C88      1.0000 0.69881  0.86471  0.57241  Biso   1.000  C
  C89      1.0000 0.57241  0.69881  0.86471  Biso   1.000  C
  C90      1.0000 0.42759  0.13529  0.30119  Biso   1.000  C
  C91      1.0000 0.13529  0.30119  0.42759  Biso   1.000  C
  C92      1.0000 0.30119  0.42759  0.13529  Biso   1.000  C
  C93      1.0000 0.25153  0.25153  0.25153  Biso   1.000  C
  C94      1.0000 0.74847  0.74847  0.74847  Biso   1.000  C
  C95      1.0000 0.13410  0.30220  0.13410  Biso   1.000  C
  C96      1.0000 0.13380  0.42820  0.13380  Biso   1.000  C
  C97      1.0000 0.13410  0.13410  0.30220  Biso   1.000  C
  C98      1.0000 0.13380  0.13380  0.42820  Biso   1.000  C
  C99      1.0000 0.30220  0.13410  0.13410  Biso   1.000  C
  C100     1.0000 0.42820  0.13380  0.13380  Biso   1.000  C
  C101     1.0000 0.69780  0.86590  0.86590  Biso   1.000  C
  C102     1.0000 0.57180  0.86620  0.86620  Biso   1.000  C
  C103     1.0000 0.86590  0.86590  0.69780  Biso   1.000  C
  C104     1.0000 0.86620  0.86620  0.57180  Biso   1.000  C
  C105     1.0000 0.86590  0.69780  0.86590  Biso   1.000  C
  C106     1.0000 0.86620  0.57180  0.86620  Biso   1.000  C
  O1       1.0000 0.00000  0.00000  0.00000  Biso   1.000  O
  O2       1.0000 0.00115  0.17276  0.00000  Biso   1.000  O
  O3       1.0000 0.82782  0.17276  0.00000  Biso   1.000  O
  O4       1.0000 0.00014  0.17233  0.82739  Biso   1.000  O
  O5       1.0000 0.40650  0.58680  0.41599  Biso   1.000  O
  O6       1.0000 0.40765  0.75956  0.41599  Biso   1.000  O
  O7       1.0000 0.57983  0.58680  0.41599  Biso   1.000  O
  O8       1.0000 0.40751  0.58724  0.58861  Biso   1.000  O
  O9       1.0000 0.86242  0.81556  0.16071  Biso   1.000  O
  O10      1.0000 0.16279  0.33326  0.86328  Biso   1.000  O
  O11      1.0000 0.64239  0.03633  0.16071  Biso   1.000  O
  O12      1.0000 0.16151  0.33271  0.64270  Biso   1.000  O
  O13      1.0000 0.64264  0.33326  0.86328  Biso   1.000  O
  O14      1.0000 0.16255  0.03633  0.16071  Biso   1.000  O
  O15      1.0000 0.86285  0.33271  0.64270  Biso   1.000  O
  O16      1.0000 0.16108  0.81556  0.16071  Biso   1.000  O
  O17      1.0000 0.15953  0.03503  0.64270  Biso   1.000  O
  O18      1.0000 0.86586  0.33400  0.16071  Biso   1.000  O
  O19      1.0000 0.15935  0.81482  0.86328  Biso   1.000  O
  O20      1.0000 0.64437  0.33400  0.16071  Biso   1.000  O
  O21      1.0000 0.54179  0.42556  0.25528  Biso   1.000  O
  O22      1.0000 0.24830  0.94475  0.55271  Biso   1.000  O
  O23      1.0000 0.76328  0.42556  0.25528  Biso   1.000  O
  O24      1.0000 0.24812  0.72453  0.77329  Biso   1.000  O
  O25      1.0000 0.76501  0.42630  0.55271  Biso   1.000  O
  O26      1.0000 0.24657  0.94400  0.25528  Biso   1.000  O
  O27      1.0000 0.54480  0.42685  0.77329  Biso   1.000  O
  O28      1.0000 0.24510  0.72323  0.25528  Biso   1.000  O
  O29      1.0000 0.24614  0.42685  0.77329  Biso   1.000  O
  O30      1.0000 0.54523  0.94400  0.25528  Biso   1.000  O
  O31      1.0000 0.24486  0.42630  0.55271  Biso   1.000  O
  O32      1.0000 0.76526  0.72323  0.25528  Biso   1.000  O
  O33      1.0000 0.79944  0.84206  0.17899  Biso   1.000  O
  O34      1.0000 0.18091  0.35140  0.80028  Biso   1.000  O
  O35      1.0000 0.66862  0.97332  0.17899  Biso   1.000  O
  O36      1.0000 0.18015  0.35107  0.66913  Biso   1.000  O
  O37      1.0000 0.66893  0.35140  0.80028  Biso   1.000  O
  O38      1.0000 0.18060  0.97332  0.17899  Biso   1.000  O
  O39      1.0000 0.79987  0.35107  0.66913  Biso   1.000  O
  O40      1.0000 0.17973  0.84206  0.17899  Biso   1.000  O
  O41      1.0000 0.17763  0.97204  0.66913  Biso   1.000  O
  O42      1.0000 0.80283  0.35235  0.17899  Biso   1.000  O
  O43      1.0000 0.17752  0.84111  0.80028  Biso   1.000  O
  O44      1.0000 0.67113  0.35235  0.17899  Biso   1.000  O
  O45      1.0000 0.60482  0.40721  0.23700  Biso   1.000  O
  O46      1.0000 0.23013  0.91845  0.61571  Biso   1.000  O
  O47      1.0000 0.73652  0.40721  0.23700  Biso   1.000  O
  O48      1.0000 0.23002  0.78752  0.74687  Biso   1.000  O
  O49      1.0000 0.73872  0.40816  0.61571  Biso   1.000  O
  O50      1.0000 0.22793  0.91751  0.23700  Biso   1.000  O
  O51      1.0000 0.60779  0.40849  0.74687  Biso   1.000  O
  O52      1.0000 0.22705  0.78624  0.23700  Biso   1.000  O
  O53      1.0000 0.22750  0.40849  0.74687  Biso   1.000  O
  O54      1.0000 0.60821  0.91751  0.23700  Biso   1.000  O
  O55      1.0000 0.22674  0.40816  0.61571  Biso   1.000  O
  O56      1.0000 0.73903  0.78624  0.23700  Biso   1.000  O
  O57      1.0000 0.81867  0.99177  0.09477  Biso   1.000  O
  O58      1.0000 0.76102  0.93450  0.15214  Biso   1.000  O
  O59      1.0000 0.09589  0.26716  0.81892  Biso   1.000  O
  O60      1.0000 0.15354  0.32443  0.76156  Biso   1.000  O
  O61      1.0000 0.81890  0.26716  0.81892  Biso   1.000  O
  O62      1.0000 0.76134  0.32443  0.76156  Biso   1.000  O
  O63      1.0000 0.09566  0.99177  0.09477  Biso   1.000  O
  O64      1.0000 0.15322  0.93450  0.15214  Biso   1.000  O
  O65      1.0000 0.09406  0.99108  0.81892  Biso   1.000  O
  O66      1.0000 0.15094  0.93352  0.76156  Biso   1.000  O
  O67      1.0000 0.82050  0.26785  0.09477  Biso   1.000  O
  O68      1.0000 0.76362  0.32540  0.15214  Biso   1.000  O
  O69      1.0000 0.58715  0.49171  0.32122  Biso   1.000  O
  O70      1.0000 0.64404  0.43416  0.26385  Biso   1.000  O
  O71      1.0000 0.31360  0.76848  0.59707  Biso   1.000  O
  O72      1.0000 0.25671  0.82604  0.65443  Biso   1.000  O
  O73      1.0000 0.58875  0.49240  0.59707  Biso   1.000  O
  O74      1.0000 0.64631  0.43513  0.65443  Biso   1.000  O
  O75      1.0000 0.31199  0.76779  0.32122  Biso   1.000  O
  O76      1.0000 0.25444  0.82506  0.26385  Biso   1.000  O
  O77      1.0000 0.31176  0.49240  0.59707  Biso   1.000  O
  O78      1.0000 0.25411  0.43513  0.65443  Biso   1.000  O
  O79      1.0000 0.58898  0.76779  0.32122  Biso   1.000  O
  O80      1.0000 0.64663  0.82506  0.26385  Biso   1.000  O
  O81      1.0000 0.95728  0.12946  0.95685  Biso   1.000  O
  O82      1.0000 0.45037  0.63010  0.45914  Biso   1.000  O
  O83      1.0000 0.90184  0.95274  0.07264  Biso   1.000  O
  O84      1.0000 0.07400  0.24521  0.90214  Biso   1.000  O
  O85      1.0000 0.77999  0.07500  0.07264  Biso   1.000  O
  O86      1.0000 0.07329  0.24490  0.77998  Biso   1.000  O
  O87      1.0000 0.78013  0.24521  0.90214  Biso   1.000  O
  O88      1.0000 0.07386  0.07500  0.07264  Biso   1.000  O
  O89      1.0000 0.90209  0.24490  0.77998  Biso   1.000  O
  O90      1.0000 0.07304  0.95274  0.07264  Biso   1.000  O
  O91      1.0000 0.07215  0.07427  0.77998  Biso   1.000  O
  O92      1.0000 0.90379  0.24564  0.07264  Biso   1.000  O
  O93      1.0000 0.07205  0.95231  0.90214  Biso   1.000  O
  O94      1.0000 0.78113  0.24564  0.07264  Biso   1.000  O
  O95      1.0000 0.50386  0.51393  0.34336  Biso   1.000  O
  O96      1.0000 0.33560  0.80725  0.51385  Biso   1.000  O
  O97      1.0000 0.62652  0.51393  0.34336  Biso   1.000  O
  O98      1.0000 0.33550  0.68529  0.63601  Biso   1.000  O
  O99      1.0000 0.62752  0.51435  0.51385  Biso   1.000  O
  O100     1.0000 0.33461  0.80682  0.34336  Biso   1.000  O
  O101     1.0000 0.50557  0.51466  0.63601  Biso   1.000  O
  O102     1.0000 0.33380  0.68456  0.34336  Biso   1.000  O
  O103     1.0000 0.33437  0.51466  0.63601  Biso   1.000  O
  O104     1.0000 0.50581  0.80682  0.34336  Biso   1.000  O
  O105     1.0000 0.33365  0.51435  0.51385  Biso   1.000  O
