data_image0
_cell_length_a       18.3149
_cell_length_b       18.3149
_cell_length_c       18.3149
_cell_angle_alpha    60.3295
_cell_angle_beta     60.3295
_cell_angle_gamma    60.3295

_symmetry_space_group_name_H-M    "P 1"
_symmetry_int_tables_number       1

loop_
  _symmetry_equiv_pos_as_xyz
  'x, y, z'

loop_
  _atom_site_label
  _atom_site_occupancy
  _atom_site_fract_x
  _atom_site_fract_y
  _atom_site_fract_z
  _atom_site_thermal_displace_type
  _atom_site_B_iso_or_equiv
  _atom_site_type_symbol
  Zn1      1.0000 0.20609  0.20609  0.20609  Biso   1.000  Zn
  Zn2      1.0000 0.79391  0.79391  0.79391  Biso   1.000  Zn
  Zn3      1.0000 0.20677  0.37952  0.20677  Biso   1.000  Zn
  Zn4      1.0000 0.20677  0.20677  0.37952  Biso   1.000  Zn
  Zn5      1.0000 0.37952  0.20677  0.20677  Biso   1.000  Zn
  Zn6      1.0000 0.62048  0.79323  0.79323  Biso   1.000  Zn
  Zn7      1.0000 0.79323  0.79323  0.62048  Biso   1.000  Zn
  Zn8      1.0000 0.79323  0.62048  0.79323  Biso   1.000  Zn
  H1       1.0000 0.04260  0.34350  0.56530  Biso   1.000  H
  H2       1.0000 0.56530  0.04260  0.34350  Biso   1.000  H
  H3       1.0000 0.34350  0.56530  0.04260  Biso   1.000  H
  H4       1.0000 0.65650  0.95740  0.43470  Biso   1.000  H
  H5       1.0000 0.95740  0.43470  0.65650  Biso   1.000  H
  H6       1.0000 0.43470  0.65650  0.95740  Biso   1.000  H
  H7       1.0000 0.95740  0.65650  0.43470  Biso   1.000  H
  H8       1.0000 0.43470  0.95740  0.65650  Biso   1.000  H
  H9       1.0000 0.65650  0.43470  0.95740  Biso   1.000  H
  H10      1.0000 0.34350  0.04260  0.56530  Biso   1.000  H
  H11      1.0000 0.04260  0.56530  0.34350  Biso   1.000  H
  H12      1.0000 0.56530  0.34350  0.04260  Biso   1.000  H
  H13      1.0000 0.04880  0.55860  0.04880  Biso   1.000  H
  H14      1.0000 0.04170  0.34450  0.04170  Biso   1.000  H
  H15      1.0000 0.04880  0.04880  0.55860  Biso   1.000  H
  H16      1.0000 0.04170  0.04170  0.34450  Biso   1.000  H
  H17      1.0000 0.55860  0.04880  0.04880  Biso   1.000  H
  H18      1.0000 0.34450  0.04170  0.04170  Biso   1.000  H
  H19      1.0000 0.44140  0.95120  0.95120  Biso   1.000  H
  H20      1.0000 0.65550  0.95830  0.95830  Biso   1.000  H
  H21      1.0000 0.95120  0.95120  0.44140  Biso   1.000  H
  H22      1.0000 0.95830  0.95830  0.65550  Biso   1.000  H
  H23      1.0000 0.95120  0.44140  0.95120  Biso   1.000  H
  H24      1.0000 0.95830  0.65550  0.95830  Biso   1.000  H
  C1       1.0000 0.02770  0.40510  0.53870  Biso   1.000  C
  C2       1.0000 0.53870  0.02770  0.40510  Biso   1.000  C
  C3       1.0000 0.40510  0.53870  0.02770  Biso   1.000  C
  C4       1.0000 0.59490  0.97230  0.46130  Biso   1.000  C
  C5       1.0000 0.97230  0.46130  0.59490  Biso   1.000  C
  C6       1.0000 0.46130  0.59490  0.97230  Biso   1.000  C
  C7       1.0000 0.97230  0.59490  0.46130  Biso   1.000  C
  C8       1.0000 0.46130  0.97230  0.59490  Biso   1.000  C
  C9       1.0000 0.59490  0.46130  0.97230  Biso   1.000  C
  C10      1.0000 0.40510  0.02770  0.53870  Biso   1.000  C
  C11      1.0000 0.02770  0.53870  0.40510  Biso   1.000  C
  C12      1.0000 0.53870  0.40510  0.02770  Biso   1.000  C
  C13      1.0000 0.11130  0.39010  0.11130  Biso   1.000  C
  C14      1.0000 0.05390  0.44400  0.05390  Biso   1.000  C
  C15      1.0000 0.02940  0.53530  0.02940  Biso   1.000  C
  C16      1.0000 0.02520  0.40600  0.02520  Biso   1.000  C
  C17      1.0000 0.11130  0.11130  0.39010  Biso   1.000  C
  C18      1.0000 0.05390  0.05390  0.44400  Biso   1.000  C
  C19      1.0000 0.02940  0.02940  0.53530  Biso   1.000  C
  C20      1.0000 0.02520  0.02520  0.40600  Biso   1.000  C
  C21      1.0000 0.39010  0.11130  0.11130  Biso   1.000  C
  C22      1.0000 0.44400  0.05390  0.05390  Biso   1.000  C
  C23      1.0000 0.53530  0.02940  0.02940  Biso   1.000  C
  C24      1.0000 0.40600  0.02520  0.02520  Biso   1.000  C
  C25      1.0000 0.60990  0.88870  0.88870  Biso   1.000  C
  C26      1.0000 0.55600  0.94610  0.94610  Biso   1.000  C
  C27      1.0000 0.46470  0.97060  0.97060  Biso   1.000  C
  C28      1.0000 0.59400  0.97480  0.97480  Biso   1.000  C
  C29      1.0000 0.88870  0.88870  0.60990  Biso   1.000  C
  C30      1.0000 0.94610  0.94610  0.55600  Biso   1.000  C
  C31      1.0000 0.97060  0.97060  0.46470  Biso   1.000  C
  C32      1.0000 0.97480  0.97480  0.59400  Biso   1.000  C
  C33      1.0000 0.88870  0.60990  0.88870  Biso   1.000  C
  C34      1.0000 0.94610  0.55600  0.94610  Biso   1.000  C
  C35      1.0000 0.97060  0.46470  0.97060  Biso   1.000  C
  C36      1.0000 0.97480  0.59400  0.97480  Biso   1.000  C
  C37      1.0000 0.11170  0.38940  0.38940  Biso   1.000  C
  C38      1.0000 0.05990  0.44245  0.44245  Biso   1.000  C
  C39      1.0000 0.38940  0.11170  0.38940  Biso   1.000  C
  C40      1.0000 0.44245  0.05990  0.44245  Biso   1.000  C
  C41      1.0000 0.38940  0.38940  0.11170  Biso   1.000  C
  C42      1.0000 0.44245  0.44245  0.05990  Biso   1.000  C
  C43      1.0000 0.61060  0.88830  0.61060  Biso   1.000  C
  C44      1.0000 0.55755  0.94010  0.55755  Biso   1.000  C
  C45      1.0000 0.88830  0.61060  0.61060  Biso   1.000  C
  C46      1.0000 0.94010  0.55755  0.55755  Biso   1.000  C
  C47      1.0000 0.61060  0.61060  0.88830  Biso   1.000  C
  C48      1.0000 0.55755  0.55755  0.94010  Biso   1.000  C
  O1       1.0000 0.13529  0.42759  0.30119  Biso   1.000  O
  O2       1.0000 0.30119  0.13529  0.42759  Biso   1.000  O
  O3       1.0000 0.42759  0.30119  0.13529  Biso   1.000  O
  O4       1.0000 0.57241  0.86471  0.69881  Biso   1.000  O
  O5       1.0000 0.86471  0.69881  0.57241  Biso   1.000  O
  O6       1.0000 0.69881  0.57241  0.86471  Biso   1.000  O
  O7       1.0000 0.86471  0.57241  0.69881  Biso   1.000  O
  O8       1.0000 0.69881  0.86471  0.57241  Biso   1.000  O
  O9       1.0000 0.57241  0.69881  0.86471  Biso   1.000  O
  O10      1.0000 0.42759  0.13529  0.30119  Biso   1.000  O
  O11      1.0000 0.13529  0.30119  0.42759  Biso   1.000  O
  O12      1.0000 0.30119  0.42759  0.13529  Biso   1.000  O
  O13      1.0000 0.25153  0.25153  0.25153  Biso   1.000  O
  O14      1.0000 0.74847  0.74847  0.74847  Biso   1.000  O
  O15      1.0000 0.13410  0.30220  0.13410  Biso   1.000  O
  O16      1.0000 0.13380  0.42820  0.13380  Biso   1.000  O
  O17      1.0000 0.13410  0.13410  0.30220  Biso   1.000  O
  O18      1.0000 0.13380  0.13380  0.42820  Biso   1.000  O
  O19      1.0000 0.30220  0.13410  0.13410  Biso   1.000  O
  O20      1.0000 0.42820  0.13380  0.13380  Biso   1.000  O
  O21      1.0000 0.69780  0.86590  0.86590  Biso   1.000  O
  O22      1.0000 0.57180  0.86620  0.86620  Biso   1.000  O
  O23      1.0000 0.86590  0.86590  0.69780  Biso   1.000  O
  O24      1.0000 0.86620  0.86620  0.57180  Biso   1.000  O
  O25      1.0000 0.86590  0.69780  0.86590  Biso   1.000  O
  O26      1.0000 0.86620  0.57180  0.86620  Biso   1.000  O
  Zn9      1.0000 0.00000  0.00000  0.00000  Biso   1.000  Zn
  Zn10     1.0000 0.00100  0.00043  0.17237  Biso   1.000  Zn
  Zn11     1.0000 0.82792  0.00043  0.17237  Biso   1.000  Zn
  Zn12     1.0000 0.99986  0.82792  0.17237  Biso   1.000  Zn
  Zn13     1.0000 0.41294  0.41950  0.76531  Biso   1.000  Zn
  Zn14     1.0000 0.41193  0.41907  0.59294  Biso   1.000  Zn
  Zn15     1.0000 0.41308  0.59158  0.59294  Biso   1.000  Zn
  Zn16     1.0000 0.58502  0.41907  0.59294  Biso   1.000  Zn
  H25      1.0000 0.86350  0.15931  0.81666  Biso   1.000  H
  H26      1.0000 0.16131  0.86480  0.33201  Biso   1.000  H
  H27      1.0000 0.64408  0.15986  0.03645  Biso   1.000  H
  H28      1.0000 0.15985  0.64482  0.33201  Biso   1.000  H
  H29      1.0000 0.86308  0.64482  0.33201  Biso   1.000  H
  H30      1.0000 0.16028  0.15931  0.81666  Biso   1.000  H
  H31      1.0000 0.64383  0.86480  0.33201  Biso   1.000  H
  H32      1.0000 0.16156  0.15986  0.03645  Biso   1.000  H
  H33      1.0000 0.86650  0.16060  0.33201  Biso   1.000  H
  H34      1.0000 0.15813  0.64408  0.03645  Biso   1.000  H
  H35      1.0000 0.64580  0.16060  0.33201  Biso   1.000  H
  H36      1.0000 0.15832  0.86351  0.81666  Biso   1.000  H
  H37      1.0000 0.25462  0.55599  0.94865  Biso   1.000  H
  H38      1.0000 0.54644  0.25890  0.43331  Biso   1.000  H
  H39      1.0000 0.25480  0.77542  0.72886  Biso   1.000  H
  H40      1.0000 0.76714  0.25890  0.43331  Biso   1.000  H
  H41      1.0000 0.76910  0.55470  0.43331  Biso   1.000  H
  H42      1.0000 0.25266  0.26019  0.94865  Biso   1.000  H
  H43      1.0000 0.54986  0.77468  0.43331  Biso   1.000  H
  H44      1.0000 0.25138  0.25964  0.72886  Biso   1.000  H
  H45      1.0000 0.25162  0.55470  0.43331  Biso   1.000  H
  H46      1.0000 0.76886  0.25964  0.72886  Biso   1.000  H
  H47      1.0000 0.25308  0.77468  0.43331  Biso   1.000  H
  H48      1.0000 0.54943  0.26019  0.94865  Biso   1.000  H
  C49      1.0000 0.80059  0.17761  0.84315  Biso   1.000  C
  C50      1.0000 0.17930  0.80186  0.35023  Biso   1.000  C
  C51      1.0000 0.67043  0.17794  0.97352  Biso   1.000  C
  C52      1.0000 0.17843  0.67138  0.35023  Biso   1.000  C
  C53      1.0000 0.80017  0.67138  0.35023  Biso   1.000  C
  C54      1.0000 0.17885  0.17761  0.84315  Biso   1.000  C
  C55      1.0000 0.67012  0.80186  0.35023  Biso   1.000  C
  C56      1.0000 0.17961  0.17794  0.97352  Biso   1.000  C
  C57      1.0000 0.80354  0.17888  0.35023  Biso   1.000  C
  C58      1.0000 0.17624  0.67044  0.97352  Biso   1.000  C
  C59      1.0000 0.67262  0.17888  0.35023  Biso   1.000  C
  C60      1.0000 0.17635  0.80059  0.84315  Biso   1.000  C
  C61      1.0000 0.23659  0.61891  0.92217  Biso   1.000  C
  C62      1.0000 0.60940  0.24062  0.41508  Biso   1.000  C
  C63      1.0000 0.23670  0.74907  0.79179  Biso   1.000  C
  C64      1.0000 0.74031  0.24062  0.41508  Biso   1.000  C
  C65      1.0000 0.74282  0.61764  0.41508  Biso   1.000  C
  C66      1.0000 0.23408  0.24189  0.92217  Biso   1.000  C
  C67      1.0000 0.61277  0.74812  0.41508  Biso   1.000  C
  C68      1.0000 0.23333  0.24156  0.79179  Biso   1.000  C
  C69      1.0000 0.23364  0.61764  0.41508  Biso   1.000  C
  C70      1.0000 0.74250  0.24156  0.79179  Biso   1.000  C
  C71      1.0000 0.23450  0.74812  0.41508  Biso   1.000  C
  C72      1.0000 0.61235  0.24189  0.92217  Biso   1.000  C
  C73      1.0000 0.76240  0.15102  0.93514  Biso   1.000  C
  C74      1.0000 0.82020  0.09350  0.99275  Biso   1.000  C
  C75      1.0000 0.15197  0.76338  0.32342  Biso   1.000  C
  C76      1.0000 0.09417  0.82089  0.26581  Biso   1.000  C
  C77      1.0000 0.76208  0.76338  0.32342  Biso   1.000  C
  C78      1.0000 0.81998  0.82089  0.26581  Biso   1.000  C
  C79      1.0000 0.15229  0.15102  0.93514  Biso   1.000  C
  C80      1.0000 0.09440  0.09350  0.99275  Biso   1.000  C
  C81      1.0000 0.76466  0.15199  0.32342  Biso   1.000  C
  C82      1.0000 0.82179  0.09418  0.26581  Biso   1.000  C
  C83      1.0000 0.14971  0.76241  0.93514  Biso   1.000  C
  C84      1.0000 0.09258  0.82021  0.99275  Biso   1.000  C
  C85      1.0000 0.26322  0.65709  0.83017  Biso   1.000  C
  C86      1.0000 0.32035  0.59929  0.77256  Biso   1.000  C
  C87      1.0000 0.64827  0.26751  0.44189  Biso   1.000  C
  C88      1.0000 0.59114  0.32532  0.49950  Biso   1.000  C
  C89      1.0000 0.65086  0.65612  0.44189  Biso   1.000  C
  C90      1.0000 0.59296  0.59861  0.49950  Biso   1.000  C
  C91      1.0000 0.26064  0.26848  0.83017  Biso   1.000  C
  C92      1.0000 0.31854  0.32600  0.77256  Biso   1.000  C
  C93      1.0000 0.26096  0.65612  0.44189  Biso   1.000  C
  C94      1.0000 0.31876  0.59861  0.49950  Biso   1.000  C
  C95      1.0000 0.65053  0.26848  0.83017  Biso   1.000  C
  C96      1.0000 0.59273  0.32600  0.77256  Biso   1.000  C
  O27      1.0000 0.95719  0.95720  0.12928  Biso   1.000  O
  O28      1.0000 0.45575  0.46230  0.63603  Biso   1.000  O
  O29      1.0000 0.90549  0.07163  0.95093  Biso   1.000  O
  O30      1.0000 0.07277  0.90623  0.24406  Biso   1.000  O
  O31      1.0000 0.77857  0.07194  0.07807  Biso   1.000  O
  O32      1.0000 0.07192  0.77899  0.24406  Biso   1.000  O
  O33      1.0000 0.90525  0.77899  0.24406  Biso   1.000  O
  O34      1.0000 0.07217  0.07163  0.95093  Biso   1.000  O
  O35      1.0000 0.77843  0.90623  0.24406  Biso   1.000  O
  O36      1.0000 0.07291  0.07194  0.07807  Biso   1.000  O
  O37      1.0000 0.90720  0.07236  0.24406  Biso   1.000  O
  O38      1.0000 0.07096  0.77857  0.07807  Biso   1.000  O
  O39      1.0000 0.77953  0.07236  0.24406  Biso   1.000  O
  O40      1.0000 0.07106  0.90550  0.95093  Biso   1.000  O
  O41      1.0000 0.34187  0.51400  0.81438  Biso   1.000  O
  O42      1.0000 0.50574  0.34714  0.52125  Biso   1.000  O
  O43      1.0000 0.34198  0.64093  0.68724  Biso   1.000  O
  O44      1.0000 0.63340  0.34714  0.52125  Biso   1.000  O
  O45      1.0000 0.63451  0.51327  0.52125  Biso   1.000  O
  O46      1.0000 0.34077  0.34788  0.81438  Biso   1.000  O
  O47      1.0000 0.50769  0.64051  0.52125  Biso   1.000  O
  O48      1.0000 0.34003  0.34756  0.68724  Biso   1.000  O
  O49      1.0000 0.34017  0.51327  0.52125  Biso   1.000  O
  O50      1.0000 0.63437  0.34756  0.68724  Biso   1.000  O
  O51      1.0000 0.34101  0.64051  0.52125  Biso   1.000  O
