data_image0
_cell_length_a       18.3149
_cell_length_b       18.3149
_cell_length_c       18.3149
_cell_angle_alpha    60.3295
_cell_angle_beta     60.3295
_cell_angle_gamma    60.3295

_symmetry_space_group_name_H-M    "P 1"
_symmetry_int_tables_number       1

loop_
  _symmetry_equiv_pos_as_xyz
  'x, y, z'

loop_
  _atom_site_label
  _atom_site_occupancy
  _atom_site_fract_x
  _atom_site_fract_y
  _atom_site_fract_z
  _atom_site_thermal_displace_type
  _atom_site_B_iso_or_equiv
  _atom_site_type_symbol
  C1       1.0000 0.20609  0.20609  0.20609  Biso   1.000  C
  C2       1.0000 0.79391  0.79391  0.79391  Biso   1.000  C
  C3       1.0000 0.20677  0.37952  0.20677  Biso   1.000  C
  C4       1.0000 0.20677  0.20677  0.37952  Biso   1.000  C
  C5       1.0000 0.37952  0.20677  0.20677  Biso   1.000  C
  C6       1.0000 0.62048  0.79323  0.79323  Biso   1.000  C
  C7       1.0000 0.79323  0.79323  0.62048  Biso   1.000  C
  C8       1.0000 0.79323  0.62048  0.79323  Biso   1.000  C
  C9       1.0000 0.04260  0.34350  0.56530  Biso   1.000  C
  C10      1.0000 0.56530  0.04260  0.34350  Biso   1.000  C
  C11      1.0000 0.34350  0.56530  0.04260  Biso   1.000  C
  C12      1.0000 0.65650  0.95740  0.43470  Biso   1.000  C
  C13      1.0000 0.95740  0.43470  0.65650  Biso   1.000  C
  C14      1.0000 0.43470  0.65650  0.95740  Biso   1.000  C
  C15      1.0000 0.95740  0.65650  0.43470  Biso   1.000  C
  C16      1.0000 0.43470  0.95740  0.65650  Biso   1.000  C
  C17      1.0000 0.65650  0.43470  0.95740  Biso   1.000  C
  C18      1.0000 0.34350  0.04260  0.56530  Biso   1.000  C
  C19      1.0000 0.04260  0.56530  0.34350  Biso   1.000  C
  C20      1.0000 0.56530  0.34350  0.04260  Biso   1.000  C
  C21      1.0000 0.04880  0.55860  0.04880  Biso   1.000  C
  C22      1.0000 0.04170  0.34450  0.04170  Biso   1.000  C
  C23      1.0000 0.04880  0.04880  0.55860  Biso   1.000  C
  C24      1.0000 0.04170  0.04170  0.34450  Biso   1.000  C
  C25      1.0000 0.55860  0.04880  0.04880  Biso   1.000  C
  C26      1.0000 0.34450  0.04170  0.04170  Biso   1.000  C
  C27      1.0000 0.44140  0.95120  0.95120  Biso   1.000  C
  C28      1.0000 0.65550  0.95830  0.95830  Biso   1.000  C
  C29      1.0000 0.95120  0.95120  0.44140  Biso   1.000  C
  C30      1.0000 0.95830  0.95830  0.65550  Biso   1.000  C
  C31      1.0000 0.95120  0.44140  0.95120  Biso   1.000  C
  C32      1.0000 0.95830  0.65550  0.95830  Biso   1.000  C
  C33      1.0000 0.02770  0.40510  0.53870  Biso   1.000  C
  C34      1.0000 0.53870  0.02770  0.40510  Biso   1.000  C
  C35      1.0000 0.40510  0.53870  0.02770  Biso   1.000  C
  C36      1.0000 0.59490  0.97230  0.46130  Biso   1.000  C
  C37      1.0000 0.97230  0.46130  0.59490  Biso   1.000  C
  C38      1.0000 0.46130  0.59490  0.97230  Biso   1.000  C
  C39      1.0000 0.97230  0.59490  0.46130  Biso   1.000  C
  C40      1.0000 0.46130  0.97230  0.59490  Biso   1.000  C
  C41      1.0000 0.59490  0.46130  0.97230  Biso   1.000  C
  C42      1.0000 0.40510  0.02770  0.53870  Biso   1.000  C
  C43      1.0000 0.02770  0.53870  0.40510  Biso   1.000  C
  C44      1.0000 0.53870  0.40510  0.02770  Biso   1.000  C
  C45      1.0000 0.11130  0.39010  0.11130  Biso   1.000  C
  C46      1.0000 0.05390  0.44400  0.05390  Biso   1.000  C
  C47      1.0000 0.02940  0.53530  0.02940  Biso   1.000  C
  C48      1.0000 0.02520  0.40600  0.02520  Biso   1.000  C
  C49      1.0000 0.11130  0.11130  0.39010  Biso   1.000  C
  C50      1.0000 0.05390  0.05390  0.44400  Biso   1.000  C
  C51      1.0000 0.02940  0.02940  0.53530  Biso   1.000  C
  C52      1.0000 0.02520  0.02520  0.40600  Biso   1.000  C
  C53      1.0000 0.39010  0.11130  0.11130  Biso   1.000  C
  C54      1.0000 0.44400  0.05390  0.05390  Biso   1.000  C
  C55      1.0000 0.53530  0.02940  0.02940  Biso   1.000  C
  C56      1.0000 0.40600  0.02520  0.02520  Biso   1.000  C
  C57      1.0000 0.60990  0.88870  0.88870  Biso   1.000  C
  C58      1.0000 0.55600  0.94610  0.94610  Biso   1.000  C
  C59      1.0000 0.46470  0.97060  0.97060  Biso   1.000  C
  C60      1.0000 0.59400  0.97480  0.97480  Biso   1.000  C
  C61      1.0000 0.88870  0.88870  0.60990  Biso   1.000  C
  C62      1.0000 0.94610  0.94610  0.55600  Biso   1.000  C
  C63      1.0000 0.97060  0.97060  0.46470  Biso   1.000  C
  C64      1.0000 0.97480  0.97480  0.59400  Biso   1.000  C
  C65      1.0000 0.88870  0.60990  0.88870  Biso   1.000  C
  C66      1.0000 0.94610  0.55600  0.94610  Biso   1.000  C
  C67      1.0000 0.97060  0.46470  0.97060  Biso   1.000  C
  C68      1.0000 0.97480  0.59400  0.97480  Biso   1.000  C
  C69      1.0000 0.11170  0.38940  0.38940  Biso   1.000  C
  C70      1.0000 0.05990  0.44245  0.44245  Biso   1.000  C
  C71      1.0000 0.38940  0.11170  0.38940  Biso   1.000  C
  C72      1.0000 0.44245  0.05990  0.44245  Biso   1.000  C
  C73      1.0000 0.38940  0.38940  0.11170  Biso   1.000  C
  C74      1.0000 0.44245  0.44245  0.05990  Biso   1.000  C
  C75      1.0000 0.61060  0.88830  0.61060  Biso   1.000  C
  C76      1.0000 0.55755  0.94010  0.55755  Biso   1.000  C
  C77      1.0000 0.88830  0.61060  0.61060  Biso   1.000  C
  C78      1.0000 0.94010  0.55755  0.55755  Biso   1.000  C
  C79      1.0000 0.61060  0.61060  0.88830  Biso   1.000  C
  C80      1.0000 0.55755  0.55755  0.94010  Biso   1.000  C
  C81      1.0000 0.13529  0.42759  0.30119  Biso   1.000  C
  C82      1.0000 0.30119  0.13529  0.42759  Biso   1.000  C
  C83      1.0000 0.42759  0.30119  0.13529  Biso   1.000  C
  C84      1.0000 0.57241  0.86471  0.69881  Biso   1.000  C
  C85      1.0000 0.86471  0.69881  0.57241  Biso   1.000  C
  C86      1.0000 0.69881  0.57241  0.86471  Biso   1.000  C
  C87      1.0000 0.86471  0.57241  0.69881  Biso   1.000  C
  C88      1.0000 0.69881  0.86471  0.57241  Biso   1.000  C
  C89      1.0000 0.57241  0.69881  0.86471  Biso   1.000  C
  C90      1.0000 0.42759  0.13529  0.30119  Biso   1.000  C
  C91      1.0000 0.13529  0.30119  0.42759  Biso   1.000  C
  C92      1.0000 0.30119  0.42759  0.13529  Biso   1.000  C
  C93      1.0000 0.25153  0.25153  0.25153  Biso   1.000  C
  C94      1.0000 0.74847  0.74847  0.74847  Biso   1.000  C
  C95      1.0000 0.13410  0.30220  0.13410  Biso   1.000  C
  C96      1.0000 0.13380  0.42820  0.13380  Biso   1.000  C
  C97      1.0000 0.13410  0.13410  0.30220  Biso   1.000  C
  C98      1.0000 0.13380  0.13380  0.42820  Biso   1.000  C
  C99      1.0000 0.30220  0.13410  0.13410  Biso   1.000  C
  C100     1.0000 0.42820  0.13380  0.13380  Biso   1.000  C
  C101     1.0000 0.69780  0.86590  0.86590  Biso   1.000  C
  C102     1.0000 0.57180  0.86620  0.86620  Biso   1.000  C
  C103     1.0000 0.86590  0.86590  0.69780  Biso   1.000  C
  C104     1.0000 0.86620  0.86620  0.57180  Biso   1.000  C
  C105     1.0000 0.86590  0.69780  0.86590  Biso   1.000  C
  C106     1.0000 0.86620  0.57180  0.86620  Biso   1.000  C
  O1       1.0000 0.00000  0.00000  0.00000  Biso   1.000  O
  O2       1.0000 0.99899  0.99957  0.82684  Biso   1.000  O
  O3       1.0000 0.99885  0.82669  0.00000  Biso   1.000  O
  O4       1.0000 0.82612  0.00000  0.00000  Biso   1.000  O
  O5       1.0000 0.41788  0.41241  0.41104  Biso   1.000  O
  O6       1.0000 0.41889  0.41284  0.58420  Biso   1.000  O
  O7       1.0000 0.59177  0.41241  0.41104  Biso   1.000  O
  O8       1.0000 0.41904  0.58572  0.41104  Biso   1.000  O
  O9       1.0000 0.16138  0.16023  0.86345  Biso   1.000  O
  O10      1.0000 0.16589  0.16216  0.63776  Biso   1.000  O
  O11      1.0000 0.86807  0.63869  0.16043  Biso   1.000  O
  O12      1.0000 0.64043  0.86374  0.16043  Biso   1.000  O
  O13      1.0000 0.16391  0.86493  0.63776  Biso   1.000  O
  O14      1.0000 0.16455  0.63795  0.86345  Biso   1.000  O
  O15      1.0000 0.86490  0.16097  0.16043  Biso   1.000  O
  O16      1.0000 0.64241  0.16097  0.16043  Biso   1.000  O
  O17      1.0000 0.16628  0.63869  0.16043  Biso   1.000  O
  O18      1.0000 0.16113  0.86374  0.16043  Biso   1.000  O
  O19      1.0000 0.86767  0.16216  0.63776  Biso   1.000  O
  O20      1.0000 0.64068  0.16023  0.86345  Biso   1.000  O
  O21      1.0000 0.25650  0.25218  0.54759  Biso   1.000  O
  O22      1.0000 0.25200  0.25025  0.77328  Biso   1.000  O
  O23      1.0000 0.77745  0.54867  0.25061  Biso   1.000  O
  O24      1.0000 0.54982  0.77372  0.25061  Biso   1.000  O
  O25      1.0000 0.55021  0.25025  0.77328  Biso   1.000  O
  O26      1.0000 0.77721  0.25218  0.54759  Biso   1.000  O
  O27      1.0000 0.25675  0.54867  0.25061  Biso   1.000  O
  O28      1.0000 0.25160  0.77372  0.25061  Biso   1.000  O
  O29      1.0000 0.77548  0.25144  0.25061  Biso   1.000  O
  O30      1.0000 0.55299  0.25144  0.25061  Biso   1.000  O
  O31      1.0000 0.25397  0.54748  0.77328  Biso   1.000  O
  O32      1.0000 0.25333  0.77446  0.54759  Biso   1.000  O
  O33      1.0000 0.17997  0.17884  0.79889  Biso   1.000  O
  O34      1.0000 0.18501  0.18101  0.66480  Biso   1.000  O
  O35      1.0000 0.80353  0.66580  0.17920  Biso   1.000  O
  O36      1.0000 0.66727  0.79917  0.17920  Biso   1.000  O
  O37      1.0000 0.18248  0.80038  0.66480  Biso   1.000  O
  O38      1.0000 0.18319  0.66485  0.79889  Biso   1.000  O
  O39      1.0000 0.80030  0.17979  0.17920  Biso   1.000  O
  O40      1.0000 0.66979  0.17979  0.17920  Biso   1.000  O
  O41      1.0000 0.18541  0.66580  0.17920  Biso   1.000  O
  O42      1.0000 0.17965  0.79917  0.17920  Biso   1.000  O
  O43      1.0000 0.80313  0.18101  0.66480  Biso   1.000  O
  O44      1.0000 0.66758  0.17884  0.79889  Biso   1.000  O
  O45      1.0000 0.23792  0.23357  0.61215  Biso   1.000  O
  O46      1.0000 0.23288  0.23140  0.74624  Biso   1.000  O
  O47      1.0000 0.75062  0.61324  0.23184  Biso   1.000  O
  O48      1.0000 0.61436  0.74661  0.23184  Biso   1.000  O
  O49      1.0000 0.61476  0.23140  0.74624  Biso   1.000  O
  O50      1.0000 0.75030  0.23357  0.61215  Biso   1.000  O
  O51      1.0000 0.23823  0.61324  0.23184  Biso   1.000  O
  O52      1.0000 0.23248  0.74661  0.23184  Biso   1.000  O
  O53      1.0000 0.74809  0.23262  0.23184  Biso   1.000  O
  O54      1.0000 0.61758  0.23262  0.23184  Biso   1.000  O
  O55      1.0000 0.23541  0.61202  0.74624  Biso   1.000  O
  O56      1.0000 0.23469  0.74756  0.61215  Biso   1.000  O
  O57      1.0000 0.09432  0.09398  0.81906  Biso   1.000  O
  O58      1.0000 0.15227  0.15153  0.76141  Biso   1.000  O
  O59      1.0000 0.81767  0.81915  0.09435  Biso   1.000  O
  O60      1.0000 0.75973  0.76159  0.15201  Biso   1.000  O
  O61      1.0000 0.09250  0.81846  0.81906  Biso   1.000  O
  O62      1.0000 0.14967  0.76061  0.76141  Biso   1.000  O
  O63      1.0000 0.81950  0.09466  0.09435  Biso   1.000  O
  O64      1.0000 0.76233  0.15251  0.15201  Biso   1.000  O
  O65      1.0000 0.09410  0.81915  0.09435  Biso   1.000  O
  O66      1.0000 0.15194  0.76159  0.15201  Biso   1.000  O
  O67      1.0000 0.81790  0.09398  0.81906  Biso   1.000  O
  O68      1.0000 0.76005  0.15153  0.76141  Biso   1.000  O
  O69      1.0000 0.32356  0.31843  0.59198  Biso   1.000  O
  O70      1.0000 0.26562  0.26088  0.64963  Biso   1.000  O
  O71      1.0000 0.60021  0.59326  0.31669  Biso   1.000  O
  O72      1.0000 0.65815  0.65082  0.25903  Biso   1.000  O
  O73      1.0000 0.59999  0.31843  0.59198  Biso   1.000  O
  O74      1.0000 0.65783  0.26088  0.64963  Biso   1.000  O
  O75      1.0000 0.32379  0.59326  0.31669  Biso   1.000  O
  O76      1.0000 0.26594  0.65082  0.25903  Biso   1.000  O
  O77      1.0000 0.59838  0.31775  0.31669  Biso   1.000  O
  O78      1.0000 0.65556  0.25990  0.25903  Biso   1.000  O
  O79      1.0000 0.32539  0.59395  0.59198  Biso   1.000  O
  O80      1.0000 0.26821  0.65180  0.64963  Biso   1.000  O
  O81      1.0000 0.07251  0.07210  0.90224  Biso   1.000  O
  O82      1.0000 0.07179  0.07180  0.78002  Biso   1.000  O
  O83      1.0000 0.90080  0.78002  0.07229  Biso   1.000  O
  O84      1.0000 0.77889  0.90234  0.07229  Biso   1.000  O
  O85      1.0000 0.07066  0.90160  0.78002  Biso   1.000  O
  O86      1.0000 0.07056  0.77959  0.90224  Biso   1.000  O
  O87      1.0000 0.90274  0.07253  0.07229  Biso   1.000  O
  O88      1.0000 0.78002  0.07253  0.07229  Biso   1.000  O
  O89      1.0000 0.07155  0.78002  0.07229  Biso   1.000  O
  O90      1.0000 0.07237  0.90234  0.07229  Biso   1.000  O
  O91      1.0000 0.90104  0.07180  0.78002  Biso   1.000  O
  O92      1.0000 0.77903  0.07210  0.90224  Biso   1.000  O
  O93      1.0000 0.34538  0.34031  0.50880  Biso   1.000  O
  O94      1.0000 0.34609  0.34061  0.63102  Biso   1.000  O
  O95      1.0000 0.63899  0.51007  0.33875  Biso   1.000  O
  O96      1.0000 0.51708  0.63239  0.33875  Biso   1.000  O
  O97      1.0000 0.51684  0.34061  0.63102  Biso   1.000  O
  O98      1.0000 0.63885  0.34031  0.50880  Biso   1.000  O
  O99      1.0000 0.34552  0.51007  0.33875  Biso   1.000  O
  O100     1.0000 0.34633  0.63239  0.33875  Biso   1.000  O
  O101     1.0000 0.63786  0.33988  0.33875  Biso   1.000  O
  O102     1.0000 0.51514  0.33988  0.33875  Biso   1.000  O
  O103     1.0000 0.34722  0.51081  0.63102  Biso   1.000  O
  O104     1.0000 0.34732  0.63282  0.50880  Biso   1.000  O
  O105     1.0000 0.95600  0.95656  0.95671  Biso   1.000  O
