data_image0
_cell_length_a       18.3149
_cell_length_b       18.3149
_cell_length_c       18.3149
_cell_angle_alpha    60.3295
_cell_angle_beta     60.3295
_cell_angle_gamma    60.3295

_symmetry_space_group_name_H-M    "P 1"
_symmetry_int_tables_number       1

loop_
  _symmetry_equiv_pos_as_xyz
  'x, y, z'

loop_
  _atom_site_label
  _atom_site_occupancy
  _atom_site_fract_x
  _atom_site_fract_y
  _atom_site_fract_z
  _atom_site_thermal_displace_type
  _atom_site_B_iso_or_equiv
  _atom_site_type_symbol
  Zn1      1.0000 0.20609  0.20609  0.20609  Biso   1.000  Zn
  Zn2      1.0000 0.79391  0.79391  0.79391  Biso   1.000  Zn
  Zn3      1.0000 0.20677  0.37952  0.20677  Biso   1.000  Zn
  Zn4      1.0000 0.20677  0.20677  0.37952  Biso   1.000  Zn
  Zn5      1.0000 0.37952  0.20677  0.20677  Biso   1.000  Zn
  Zn6      1.0000 0.62048  0.79323  0.79323  Biso   1.000  Zn
  Zn7      1.0000 0.79323  0.79323  0.62048  Biso   1.000  Zn
  Zn8      1.0000 0.79323  0.62048  0.79323  Biso   1.000  Zn
  H1       1.0000 0.04260  0.34350  0.56530  Biso   1.000  H
  H2       1.0000 0.56530  0.04260  0.34350  Biso   1.000  H
  H3       1.0000 0.34350  0.56530  0.04260  Biso   1.000  H
  H4       1.0000 0.65650  0.95740  0.43470  Biso   1.000  H
  H5       1.0000 0.95740  0.43470  0.65650  Biso   1.000  H
  H6       1.0000 0.43470  0.65650  0.95740  Biso   1.000  H
  H7       1.0000 0.95740  0.65650  0.43470  Biso   1.000  H
  H8       1.0000 0.43470  0.95740  0.65650  Biso   1.000  H
  H9       1.0000 0.65650  0.43470  0.95740  Biso   1.000  H
  H10      1.0000 0.34350  0.04260  0.56530  Biso   1.000  H
  H11      1.0000 0.04260  0.56530  0.34350  Biso   1.000  H
  H12      1.0000 0.56530  0.34350  0.04260  Biso   1.000  H
  H13      1.0000 0.04880  0.55860  0.04880  Biso   1.000  H
  H14      1.0000 0.04170  0.34450  0.04170  Biso   1.000  H
  H15      1.0000 0.04880  0.04880  0.55860  Biso   1.000  H
  H16      1.0000 0.04170  0.04170  0.34450  Biso   1.000  H
  H17      1.0000 0.55860  0.04880  0.04880  Biso   1.000  H
  H18      1.0000 0.34450  0.04170  0.04170  Biso   1.000  H
  H19      1.0000 0.44140  0.95120  0.95120  Biso   1.000  H
  H20      1.0000 0.65550  0.95830  0.95830  Biso   1.000  H
  H21      1.0000 0.95120  0.95120  0.44140  Biso   1.000  H
  H22      1.0000 0.95830  0.95830  0.65550  Biso   1.000  H
  H23      1.0000 0.95120  0.44140  0.95120  Biso   1.000  H
  H24      1.0000 0.95830  0.65550  0.95830  Biso   1.000  H
  C1       1.0000 0.02770  0.40510  0.53870  Biso   1.000  C
  C2       1.0000 0.53870  0.02770  0.40510  Biso   1.000  C
  C3       1.0000 0.40510  0.53870  0.02770  Biso   1.000  C
  C4       1.0000 0.59490  0.97230  0.46130  Biso   1.000  C
  C5       1.0000 0.97230  0.46130  0.59490  Biso   1.000  C
  C6       1.0000 0.46130  0.59490  0.97230  Biso   1.000  C
  C7       1.0000 0.97230  0.59490  0.46130  Biso   1.000  C
  C8       1.0000 0.46130  0.97230  0.59490  Biso   1.000  C
  C9       1.0000 0.59490  0.46130  0.97230  Biso   1.000  C
  C10      1.0000 0.40510  0.02770  0.53870  Biso   1.000  C
  C11      1.0000 0.02770  0.53870  0.40510  Biso   1.000  C
  C12      1.0000 0.53870  0.40510  0.02770  Biso   1.000  C
  C13      1.0000 0.11130  0.39010  0.11130  Biso   1.000  C
  C14      1.0000 0.05390  0.44400  0.05390  Biso   1.000  C
  C15      1.0000 0.02940  0.53530  0.02940  Biso   1.000  C
  C16      1.0000 0.02520  0.40600  0.02520  Biso   1.000  C
  C17      1.0000 0.11130  0.11130  0.39010  Biso   1.000  C
  C18      1.0000 0.05390  0.05390  0.44400  Biso   1.000  C
  C19      1.0000 0.02940  0.02940  0.53530  Biso   1.000  C
  C20      1.0000 0.02520  0.02520  0.40600  Biso   1.000  C
  C21      1.0000 0.39010  0.11130  0.11130  Biso   1.000  C
  C22      1.0000 0.44400  0.05390  0.05390  Biso   1.000  C
  C23      1.0000 0.53530  0.02940  0.02940  Biso   1.000  C
  C24      1.0000 0.40600  0.02520  0.02520  Biso   1.000  C
  C25      1.0000 0.60990  0.88870  0.88870  Biso   1.000  C
  C26      1.0000 0.55600  0.94610  0.94610  Biso   1.000  C
  C27      1.0000 0.46470  0.97060  0.97060  Biso   1.000  C
  C28      1.0000 0.59400  0.97480  0.97480  Biso   1.000  C
  C29      1.0000 0.88870  0.88870  0.60990  Biso   1.000  C
  C30      1.0000 0.94610  0.94610  0.55600  Biso   1.000  C
  C31      1.0000 0.97060  0.97060  0.46470  Biso   1.000  C
  C32      1.0000 0.97480  0.97480  0.59400  Biso   1.000  C
  C33      1.0000 0.88870  0.60990  0.88870  Biso   1.000  C
  C34      1.0000 0.94610  0.55600  0.94610  Biso   1.000  C
  C35      1.0000 0.97060  0.46470  0.97060  Biso   1.000  C
  C36      1.0000 0.97480  0.59400  0.97480  Biso   1.000  C
  C37      1.0000 0.11170  0.38940  0.38940  Biso   1.000  C
  C38      1.0000 0.05990  0.44245  0.44245  Biso   1.000  C
  C39      1.0000 0.38940  0.11170  0.38940  Biso   1.000  C
  C40      1.0000 0.44245  0.05990  0.44245  Biso   1.000  C
  C41      1.0000 0.38940  0.38940  0.11170  Biso   1.000  C
  C42      1.0000 0.44245  0.44245  0.05990  Biso   1.000  C
  C43      1.0000 0.61060  0.88830  0.61060  Biso   1.000  C
  C44      1.0000 0.55755  0.94010  0.55755  Biso   1.000  C
  C45      1.0000 0.88830  0.61060  0.61060  Biso   1.000  C
  C46      1.0000 0.94010  0.55755  0.55755  Biso   1.000  C
  C47      1.0000 0.61060  0.61060  0.88830  Biso   1.000  C
  C48      1.0000 0.55755  0.55755  0.94010  Biso   1.000  C
  O1       1.0000 0.13529  0.42759  0.30119  Biso   1.000  O
  O2       1.0000 0.30119  0.13529  0.42759  Biso   1.000  O
  O3       1.0000 0.42759  0.30119  0.13529  Biso   1.000  O
  O4       1.0000 0.57241  0.86471  0.69881  Biso   1.000  O
  O5       1.0000 0.86471  0.69881  0.57241  Biso   1.000  O
  O6       1.0000 0.69881  0.57241  0.86471  Biso   1.000  O
  O7       1.0000 0.86471  0.57241  0.69881  Biso   1.000  O
  O8       1.0000 0.69881  0.86471  0.57241  Biso   1.000  O
  O9       1.0000 0.57241  0.69881  0.86471  Biso   1.000  O
  O10      1.0000 0.42759  0.13529  0.30119  Biso   1.000  O
  O11      1.0000 0.13529  0.30119  0.42759  Biso   1.000  O
  O12      1.0000 0.30119  0.42759  0.13529  Biso   1.000  O
  O13      1.0000 0.25153  0.25153  0.25153  Biso   1.000  O
  O14      1.0000 0.74847  0.74847  0.74847  Biso   1.000  O
  O15      1.0000 0.13410  0.30220  0.13410  Biso   1.000  O
  O16      1.0000 0.13380  0.42820  0.13380  Biso   1.000  O
  O17      1.0000 0.13410  0.13410  0.30220  Biso   1.000  O
  O18      1.0000 0.13380  0.13380  0.42820  Biso   1.000  O
  O19      1.0000 0.30220  0.13410  0.13410  Biso   1.000  O
  O20      1.0000 0.42820  0.13380  0.13380  Biso   1.000  O
  O21      1.0000 0.69780  0.86590  0.86590  Biso   1.000  O
  O22      1.0000 0.57180  0.86620  0.86620  Biso   1.000  O
  O23      1.0000 0.86590  0.86590  0.69780  Biso   1.000  O
  O24      1.0000 0.86620  0.86620  0.57180  Biso   1.000  O
  O25      1.0000 0.86590  0.69780  0.86590  Biso   1.000  O
  O26      1.0000 0.86620  0.57180  0.86620  Biso   1.000  O
  Zn9      1.0000 0.01181  0.83565  0.13319  Biso   1.000  Zn
  Zn10     1.0000 0.01297  0.00935  0.13319  Biso   1.000  Zn
  Zn11     1.0000 0.83870  0.00935  0.13319  Biso   1.000  Zn
  Zn12     1.0000 0.01196  0.00891  0.95964  Biso   1.000  Zn
  Zn13     1.0000 0.41744  0.42305  0.54884  Biso   1.000  Zn
  Zn14     1.0000 0.41860  0.59675  0.54884  Biso   1.000  Zn
  Zn15     1.0000 0.59171  0.42305  0.54884  Biso   1.000  Zn
  Zn16     1.0000 0.41845  0.42349  0.72240  Biso   1.000  Zn
  H25      1.0000 0.88070  0.65189  0.29033  Biso   1.000  H
  H26      1.0000 0.17104  0.16629  0.00293  Biso   1.000  H
  H27      1.0000 0.65398  0.87937  0.29033  Biso   1.000  H
  H28      1.0000 0.16972  0.16572  0.77564  Biso   1.000  H
  H29      1.0000 0.65422  0.16629  0.00293  Biso   1.000  H
  H30      1.0000 0.17080  0.87937  0.29033  Biso   1.000  H
  H31      1.0000 0.88113  0.16572  0.77564  Biso   1.000  H
  H32      1.0000 0.16929  0.65189  0.29033  Biso   1.000  H
  H33      1.0000 0.16781  0.87808  0.77564  Biso   1.000  H
  H34      1.0000 0.88412  0.16701  0.29033  Biso   1.000  H
  H35      1.0000 0.16762  0.65117  0.00293  Biso   1.000  H
  H36      1.0000 0.65589  0.16701  0.29033  Biso   1.000  H
  H37      1.0000 0.54629  0.26539  0.39171  Biso   1.000  H
  H38      1.0000 0.26279  0.78123  0.67911  Biso   1.000  H
  H39      1.0000 0.77452  0.26539  0.39171  Biso   1.000  H
  H40      1.0000 0.26261  0.55432  0.90640  Biso   1.000  H
  H41      1.0000 0.77619  0.26611  0.67911  Biso   1.000  H
  H42      1.0000 0.26112  0.78051  0.39171  Biso   1.000  H
  H43      1.0000 0.54928  0.26668  0.90640  Biso   1.000  H
  H44      1.0000 0.25961  0.55303  0.39171  Biso   1.000  H
  H45      1.0000 0.26070  0.26668  0.90640  Biso   1.000  H
  H46      1.0000 0.54971  0.78051  0.39171  Biso   1.000  H
  H47      1.0000 0.25937  0.26611  0.67911  Biso   1.000  H
  H48      1.0000 0.77643  0.55303  0.39171  Biso   1.000  H
  C49      1.0000 0.81036  0.67834  0.31232  Biso   1.000  C
  C50      1.0000 0.19286  0.18812  0.93257  Biso   1.000  C
  C51      1.0000 0.68012  0.80901  0.31232  Biso   1.000  C
  C52      1.0000 0.19210  0.18780  0.80201  Biso   1.000  C
  C53      1.0000 0.68044  0.18812  0.93257  Biso   1.000  C
  C54      1.0000 0.19254  0.80901  0.31232  Biso   1.000  C
  C55      1.0000 0.81078  0.18780  0.80201  Biso   1.000  C
  C56      1.0000 0.19168  0.67834  0.31232  Biso   1.000  C
  C57      1.0000 0.18957  0.80773  0.80201  Biso   1.000  C
  C58      1.0000 0.81375  0.18907  0.31232  Biso   1.000  C
  C59      1.0000 0.18947  0.67739  0.93257  Biso   1.000  C
  C60      1.0000 0.68265  0.18907  0.31232  Biso   1.000  C
  C61      1.0000 0.61666  0.24333  0.36972  Biso   1.000  C
  C62      1.0000 0.24094  0.75501  0.74946  Biso   1.000  C
  C63      1.0000 0.74776  0.24333  0.36972  Biso   1.000  C
  C64      1.0000 0.24084  0.62467  0.88003  Biso   1.000  C
  C65      1.0000 0.74997  0.24428  0.74946  Biso   1.000  C
  C66      1.0000 0.23873  0.75406  0.36972  Biso   1.000  C
  C67      1.0000 0.61963  0.24461  0.88003  Biso   1.000  C
  C68      1.0000 0.23787  0.62339  0.36972  Biso   1.000  C
  C69      1.0000 0.23831  0.24461  0.88003  Biso   1.000  C
  C70      1.0000 0.62005  0.75406  0.36972  Biso   1.000  C
  C71      1.0000 0.23755  0.24428  0.74946  Biso   1.000  C
  C72      1.0000 0.75029  0.62339  0.36972  Biso   1.000  C
  C73      1.0000 0.82935  0.82723  0.22863  Biso   1.000  C
  C74      1.0000 0.77314  0.77139  0.28455  Biso   1.000  C
  C75      1.0000 0.10837  0.10441  0.95098  Biso   1.000  C
  C76      1.0000 0.16458  0.16024  0.89505  Biso   1.000  C
  C77      1.0000 0.82958  0.10441  0.95098  Biso   1.000  C
  C78      1.0000 0.77346  0.16024  0.89505  Biso   1.000  C
  C79      1.0000 0.10814  0.82723  0.22863  Biso   1.000  C
  C80      1.0000 0.16425  0.77139  0.28455  Biso   1.000  C
  C81      1.0000 0.10653  0.82653  0.95098  Biso   1.000  C
  C82      1.0000 0.16199  0.77042  0.89505  Biso   1.000  C
  C83      1.0000 0.83119  0.10510  0.22863  Biso   1.000  C
  C84      1.0000 0.77573  0.16122  0.28455  Biso   1.000  C
  C85      1.0000 0.59922  0.32730  0.45341  Biso   1.000  C
  C86      1.0000 0.65468  0.27119  0.39748  Biso   1.000  C
  C87      1.0000 0.32388  0.60587  0.73105  Biso   1.000  C
  C88      1.0000 0.26842  0.66198  0.78698  Biso   1.000  C
  C89      1.0000 0.60083  0.32799  0.73105  Biso   1.000  C
  C90      1.0000 0.65695  0.27216  0.78698  Biso   1.000  C
  C91      1.0000 0.32227  0.60518  0.45341  Biso   1.000  C
  C92      1.0000 0.26616  0.66101  0.39748  Biso   1.000  C
  C93      1.0000 0.32204  0.32799  0.73105  Biso   1.000  C
  C94      1.0000 0.26583  0.27216  0.78698  Biso   1.000  C
  C95      1.0000 0.60106  0.60518  0.45341  Biso   1.000  C
  C96      1.0000 0.65727  0.66101  0.39748  Biso   1.000  C
  O27      1.0000 0.96886  0.96582  0.08980  Biso   1.000  O
  O28      1.0000 0.46155  0.46658  0.59223  Biso   1.000  O
  O29      1.0000 0.91330  0.78852  0.20594  Biso   1.000  O
  O30      1.0000 0.08593  0.08191  0.03497  Biso   1.000  O
  O31      1.0000 0.79100  0.91123  0.20594  Biso   1.000  O
  O32      1.0000 0.08521  0.08160  0.91237  Biso   1.000  O
  O33      1.0000 0.79114  0.08191  0.03497  Biso   1.000  O
  O34      1.0000 0.08578  0.91123  0.20594  Biso   1.000  O
  O35      1.0000 0.91354  0.08160  0.91237  Biso   1.000  O
  O36      1.0000 0.08497  0.78852  0.20594  Biso   1.000  O
  O37      1.0000 0.08408  0.91049  0.91237  Biso   1.000  O
  O38      1.0000 0.91525  0.08234  0.20594  Biso   1.000  O
  O39      1.0000 0.08398  0.78810  0.03497  Biso   1.000  O
  O40      1.0000 0.79214  0.08234  0.20594  Biso   1.000  O
  O41      1.0000 0.51516  0.35006  0.47610  Biso   1.000  O
  O42      1.0000 0.34644  0.64430  0.64706  Biso   1.000  O
  O43      1.0000 0.63827  0.35006  0.47610  Biso   1.000  O
  O44      1.0000 0.34633  0.52191  0.76967  Biso   1.000  O
  O45      1.0000 0.63927  0.35049  0.64706  Biso   1.000  O
  O46      1.0000 0.34544  0.64388  0.47610  Biso   1.000  O
  O47      1.0000 0.51687  0.35080  0.76967  Biso   1.000  O
  O48      1.0000 0.34463  0.52117  0.47610  Biso   1.000  O
  O49      1.0000 0.34520  0.35080  0.76967  Biso   1.000  O
  O50      1.0000 0.51711  0.64388  0.47610  Biso   1.000  O
  O51      1.0000 0.34448  0.35049  0.64706  Biso   1.000  O
