data_image0
_cell_length_a       18.3149
_cell_length_b       18.3149
_cell_length_c       18.3149
_cell_angle_alpha    60.3295
_cell_angle_beta     60.3295
_cell_angle_gamma    60.3295

_symmetry_space_group_name_H-M    "P 1"
_symmetry_int_tables_number       1

loop_
  _symmetry_equiv_pos_as_xyz
  'x, y, z'

loop_
  _atom_site_label
  _atom_site_occupancy
  _atom_site_fract_x
  _atom_site_fract_y
  _atom_site_fract_z
  _atom_site_thermal_displace_type
  _atom_site_B_iso_or_equiv
  _atom_site_type_symbol
  C1       1.0000 0.20609  0.20609  0.20609  Biso   1.000  C
  C2       1.0000 0.79391  0.79391  0.79391  Biso   1.000  C
  C3       1.0000 0.20677  0.37952  0.20677  Biso   1.000  C
  C4       1.0000 0.20677  0.20677  0.37952  Biso   1.000  C
  C5       1.0000 0.37952  0.20677  0.20677  Biso   1.000  C
  C6       1.0000 0.62048  0.79323  0.79323  Biso   1.000  C
  C7       1.0000 0.79323  0.79323  0.62048  Biso   1.000  C
  C8       1.0000 0.79323  0.62048  0.79323  Biso   1.000  C
  C9       1.0000 0.04260  0.34350  0.56530  Biso   1.000  C
  C10      1.0000 0.56530  0.04260  0.34350  Biso   1.000  C
  C11      1.0000 0.34350  0.56530  0.04260  Biso   1.000  C
  C12      1.0000 0.65650  0.95740  0.43470  Biso   1.000  C
  C13      1.0000 0.95740  0.43470  0.65650  Biso   1.000  C
  C14      1.0000 0.43470  0.65650  0.95740  Biso   1.000  C
  C15      1.0000 0.95740  0.65650  0.43470  Biso   1.000  C
  C16      1.0000 0.43470  0.95740  0.65650  Biso   1.000  C
  C17      1.0000 0.65650  0.43470  0.95740  Biso   1.000  C
  C18      1.0000 0.34350  0.04260  0.56530  Biso   1.000  C
  C19      1.0000 0.04260  0.56530  0.34350  Biso   1.000  C
  C20      1.0000 0.56530  0.34350  0.04260  Biso   1.000  C
  C21      1.0000 0.04880  0.55860  0.04880  Biso   1.000  C
  C22      1.0000 0.04170  0.34450  0.04170  Biso   1.000  C
  C23      1.0000 0.04880  0.04880  0.55860  Biso   1.000  C
  C24      1.0000 0.04170  0.04170  0.34450  Biso   1.000  C
  C25      1.0000 0.55860  0.04880  0.04880  Biso   1.000  C
  C26      1.0000 0.34450  0.04170  0.04170  Biso   1.000  C
  C27      1.0000 0.44140  0.95120  0.95120  Biso   1.000  C
  C28      1.0000 0.65550  0.95830  0.95830  Biso   1.000  C
  C29      1.0000 0.95120  0.95120  0.44140  Biso   1.000  C
  C30      1.0000 0.95830  0.95830  0.65550  Biso   1.000  C
  C31      1.0000 0.95120  0.44140  0.95120  Biso   1.000  C
  C32      1.0000 0.95830  0.65550  0.95830  Biso   1.000  C
  C33      1.0000 0.02770  0.40510  0.53870  Biso   1.000  C
  C34      1.0000 0.53870  0.02770  0.40510  Biso   1.000  C
  C35      1.0000 0.40510  0.53870  0.02770  Biso   1.000  C
  C36      1.0000 0.59490  0.97230  0.46130  Biso   1.000  C
  C37      1.0000 0.97230  0.46130  0.59490  Biso   1.000  C
  C38      1.0000 0.46130  0.59490  0.97230  Biso   1.000  C
  C39      1.0000 0.97230  0.59490  0.46130  Biso   1.000  C
  C40      1.0000 0.46130  0.97230  0.59490  Biso   1.000  C
  C41      1.0000 0.59490  0.46130  0.97230  Biso   1.000  C
  C42      1.0000 0.40510  0.02770  0.53870  Biso   1.000  C
  C43      1.0000 0.02770  0.53870  0.40510  Biso   1.000  C
  C44      1.0000 0.53870  0.40510  0.02770  Biso   1.000  C
  C45      1.0000 0.11130  0.39010  0.11130  Biso   1.000  C
  C46      1.0000 0.05390  0.44400  0.05390  Biso   1.000  C
  C47      1.0000 0.02940  0.53530  0.02940  Biso   1.000  C
  C48      1.0000 0.02520  0.40600  0.02520  Biso   1.000  C
  C49      1.0000 0.11130  0.11130  0.39010  Biso   1.000  C
  C50      1.0000 0.05390  0.05390  0.44400  Biso   1.000  C
  C51      1.0000 0.02940  0.02940  0.53530  Biso   1.000  C
  C52      1.0000 0.02520  0.02520  0.40600  Biso   1.000  C
  C53      1.0000 0.39010  0.11130  0.11130  Biso   1.000  C
  C54      1.0000 0.44400  0.05390  0.05390  Biso   1.000  C
  C55      1.0000 0.53530  0.02940  0.02940  Biso   1.000  C
  C56      1.0000 0.40600  0.02520  0.02520  Biso   1.000  C
  C57      1.0000 0.60990  0.88870  0.88870  Biso   1.000  C
  C58      1.0000 0.55600  0.94610  0.94610  Biso   1.000  C
  C59      1.0000 0.46470  0.97060  0.97060  Biso   1.000  C
  C60      1.0000 0.59400  0.97480  0.97480  Biso   1.000  C
  C61      1.0000 0.88870  0.88870  0.60990  Biso   1.000  C
  C62      1.0000 0.94610  0.94610  0.55600  Biso   1.000  C
  C63      1.0000 0.97060  0.97060  0.46470  Biso   1.000  C
  C64      1.0000 0.97480  0.97480  0.59400  Biso   1.000  C
  C65      1.0000 0.88870  0.60990  0.88870  Biso   1.000  C
  C66      1.0000 0.94610  0.55600  0.94610  Biso   1.000  C
  C67      1.0000 0.97060  0.46470  0.97060  Biso   1.000  C
  C68      1.0000 0.97480  0.59400  0.97480  Biso   1.000  C
  C69      1.0000 0.11170  0.38940  0.38940  Biso   1.000  C
  C70      1.0000 0.05990  0.44245  0.44245  Biso   1.000  C
  C71      1.0000 0.38940  0.11170  0.38940  Biso   1.000  C
  C72      1.0000 0.44245  0.05990  0.44245  Biso   1.000  C
  C73      1.0000 0.38940  0.38940  0.11170  Biso   1.000  C
  C74      1.0000 0.44245  0.44245  0.05990  Biso   1.000  C
  C75      1.0000 0.61060  0.88830  0.61060  Biso   1.000  C
  C76      1.0000 0.55755  0.94010  0.55755  Biso   1.000  C
  C77      1.0000 0.88830  0.61060  0.61060  Biso   1.000  C
  C78      1.0000 0.94010  0.55755  0.55755  Biso   1.000  C
  C79      1.0000 0.61060  0.61060  0.88830  Biso   1.000  C
  C80      1.0000 0.55755  0.55755  0.94010  Biso   1.000  C
  C81      1.0000 0.13529  0.42759  0.30119  Biso   1.000  C
  C82      1.0000 0.30119  0.13529  0.42759  Biso   1.000  C
  C83      1.0000 0.42759  0.30119  0.13529  Biso   1.000  C
  C84      1.0000 0.57241  0.86471  0.69881  Biso   1.000  C
  C85      1.0000 0.86471  0.69881  0.57241  Biso   1.000  C
  C86      1.0000 0.69881  0.57241  0.86471  Biso   1.000  C
  C87      1.0000 0.86471  0.57241  0.69881  Biso   1.000  C
  C88      1.0000 0.69881  0.86471  0.57241  Biso   1.000  C
  C89      1.0000 0.57241  0.69881  0.86471  Biso   1.000  C
  C90      1.0000 0.42759  0.13529  0.30119  Biso   1.000  C
  C91      1.0000 0.13529  0.30119  0.42759  Biso   1.000  C
  C92      1.0000 0.30119  0.42759  0.13529  Biso   1.000  C
  C93      1.0000 0.25153  0.25153  0.25153  Biso   1.000  C
  C94      1.0000 0.74847  0.74847  0.74847  Biso   1.000  C
  C95      1.0000 0.13410  0.30220  0.13410  Biso   1.000  C
  C96      1.0000 0.13380  0.42820  0.13380  Biso   1.000  C
  C97      1.0000 0.13410  0.13410  0.30220  Biso   1.000  C
  C98      1.0000 0.13380  0.13380  0.42820  Biso   1.000  C
  C99      1.0000 0.30220  0.13410  0.13410  Biso   1.000  C
  C100     1.0000 0.42820  0.13380  0.13380  Biso   1.000  C
  C101     1.0000 0.69780  0.86590  0.86590  Biso   1.000  C
  C102     1.0000 0.57180  0.86620  0.86620  Biso   1.000  C
  C103     1.0000 0.86590  0.86590  0.69780  Biso   1.000  C
  C104     1.0000 0.86620  0.86620  0.57180  Biso   1.000  C
  C105     1.0000 0.86590  0.69780  0.86590  Biso   1.000  C
  C106     1.0000 0.86620  0.57180  0.86620  Biso   1.000  C
  O1       1.0000 0.00000  0.00000  0.00000  Biso   1.000  O
  O2       1.0000 0.00101  0.00043  0.17284  Biso   1.000  O
  O3       1.0000 0.82745  0.00043  0.17284  Biso   1.000  O
  O4       1.0000 0.99986  0.82745  0.17284  Biso   1.000  O
  O5       1.0000 0.41984  0.41326  0.75670  Biso   1.000  O
  O6       1.0000 0.41883  0.41283  0.58386  Biso   1.000  O
  O7       1.0000 0.41998  0.58581  0.58386  Biso   1.000  O
  O8       1.0000 0.59239  0.41283  0.58386  Biso   1.000  O
  O9       1.0000 0.16739  0.16310  0.81093  Biso   1.000  O
  O10      1.0000 0.16287  0.16116  0.03492  Biso   1.000  O
  O11      1.0000 0.64174  0.86280  0.33378  Biso   1.000  O
  O12      1.0000 0.86768  0.63945  0.33378  Biso   1.000  O
  O13      1.0000 0.16604  0.63870  0.03492  Biso   1.000  O
  O14      1.0000 0.16540  0.86399  0.81093  Biso   1.000  O
  O15      1.0000 0.64373  0.16191  0.33378  Biso   1.000  O
  O16      1.0000 0.86451  0.16191  0.33378  Biso   1.000  O
  O17      1.0000 0.16262  0.86280  0.33378  Biso   1.000  O
  O18      1.0000 0.16778  0.63945  0.33378  Biso   1.000  O
  O19      1.0000 0.64199  0.16116  0.03492  Biso   1.000  O
  O20      1.0000 0.86729  0.16310  0.81093  Biso   1.000  O
  O21      1.0000 0.25245  0.25015  0.94578  Biso   1.000  O
  O22      1.0000 0.25697  0.25210  0.72178  Biso   1.000  O
  O23      1.0000 0.55216  0.77381  0.42292  Biso   1.000  O
  O24      1.0000 0.77810  0.55046  0.42292  Biso   1.000  O
  O25      1.0000 0.77785  0.25210  0.72178  Biso   1.000  O
  O26      1.0000 0.55255  0.25015  0.94578  Biso   1.000  O
  O27      1.0000 0.25206  0.77381  0.42292  Biso   1.000  O
  O28      1.0000 0.25722  0.55046  0.42292  Biso   1.000  O
  O29      1.0000 0.55533  0.25135  0.42292  Biso   1.000  O
  O30      1.0000 0.77611  0.25135  0.42292  Biso   1.000  O
  O31      1.0000 0.25380  0.77456  0.72178  Biso   1.000  O
  O32      1.0000 0.25444  0.54926  0.94578  Biso   1.000  O
  O33      1.0000 0.18583  0.18128  0.83774  Biso   1.000  O
  O34      1.0000 0.18080  0.17912  0.97191  Biso   1.000  O
  O35      1.0000 0.66835  0.79979  0.35188  Biso   1.000  O
  O36      1.0000 0.80470  0.66633  0.35188  Biso   1.000  O
  O37      1.0000 0.18402  0.66538  0.97191  Biso   1.000  O
  O38      1.0000 0.18331  0.80100  0.83774  Biso   1.000  O
  O39      1.0000 0.67088  0.18007  0.35188  Biso   1.000  O
  O40      1.0000 0.80147  0.18007  0.35188  Biso   1.000  O
  O41      1.0000 0.18048  0.79979  0.35188  Biso   1.000  O
  O42      1.0000 0.18624  0.66633  0.35188  Biso   1.000  O
  O43      1.0000 0.66867  0.17912  0.97191  Biso   1.000  O
  O44      1.0000 0.80430  0.18128  0.83774  Biso   1.000  O
  O45      1.0000 0.23401  0.23198  0.91897  Biso   1.000  O
  O46      1.0000 0.23904  0.23414  0.78479  Biso   1.000  O
  O47      1.0000 0.61514  0.74693  0.40483  Biso   1.000  O
  O48      1.0000 0.75149  0.61347  0.40483  Biso   1.000  O
  O49      1.0000 0.75117  0.23414  0.78479  Biso   1.000  O
  O50      1.0000 0.61554  0.23198  0.91897  Biso   1.000  O
  O51      1.0000 0.23360  0.74693  0.40483  Biso   1.000  O
  O52      1.0000 0.23936  0.61347  0.40483  Biso   1.000  O
  O53      1.0000 0.61837  0.23319  0.40483  Biso   1.000  O
  O54      1.0000 0.74896  0.23319  0.40483  Biso   1.000  O
  O55      1.0000 0.23582  0.74788  0.78479  Biso   1.000  O
  O56      1.0000 0.23653  0.61226  0.91897  Biso   1.000  O
  O57      1.0000 0.09545  0.09454  0.99194  Biso   1.000  O
  O58      1.0000 0.15341  0.15212  0.93427  Biso   1.000  O
  O59      1.0000 0.81870  0.81962  0.26732  Biso   1.000  O
  O60      1.0000 0.76074  0.76204  0.32500  Biso   1.000  O
  O61      1.0000 0.09362  0.81893  0.99194  Biso   1.000  O
  O62      1.0000 0.15081  0.76107  0.93427  Biso   1.000  O
  O63      1.0000 0.82053  0.09523  0.26732  Biso   1.000  O
  O64      1.0000 0.76333  0.15310  0.32500  Biso   1.000  O
  O65      1.0000 0.09522  0.81962  0.26732  Biso   1.000  O
  O66      1.0000 0.15308  0.76204  0.32500  Biso   1.000  O
  O67      1.0000 0.81892  0.09454  0.99194  Biso   1.000  O
  O68      1.0000 0.76106  0.15212  0.93427  Biso   1.000  O
  O69      1.0000 0.32439  0.31872  0.76476  Biso   1.000  O
  O70      1.0000 0.26643  0.26114  0.82244  Biso   1.000  O
  O71      1.0000 0.60114  0.59364  0.48938  Biso   1.000  O
  O72      1.0000 0.65910  0.65122  0.43171  Biso   1.000  O
  O73      1.0000 0.60092  0.31872  0.76476  Biso   1.000  O
  O74      1.0000 0.65878  0.26114  0.82244  Biso   1.000  O
  O75      1.0000 0.32462  0.59364  0.48938  Biso   1.000  O
  O76      1.0000 0.26676  0.65122  0.43171  Biso   1.000  O
  O77      1.0000 0.59931  0.31803  0.48938  Biso   1.000  O
  O78      1.0000 0.65651  0.26016  0.43171  Biso   1.000  O
  O79      1.0000 0.32622  0.59433  0.76476  Biso   1.000  O
  O80      1.0000 0.26903  0.65219  0.82244  Biso   1.000  O
  O81      1.0000 0.95707  0.95708  0.12963  Biso   1.000  O
  O82      1.0000 0.46277  0.45618  0.62707  Biso   1.000  O
  O83      1.0000 0.07283  0.07227  0.95335  Biso   1.000  O
  O84      1.0000 0.07353  0.07258  0.07484  Biso   1.000  O
  O85      1.0000 0.78037  0.90254  0.24517  Biso   1.000  O
  O86      1.0000 0.90156  0.78094  0.24517  Biso   1.000  O
  O87      1.0000 0.07159  0.78051  0.07484  Biso   1.000  O
  O88      1.0000 0.07169  0.90181  0.95335  Biso   1.000  O
  O89      1.0000 0.78150  0.07300  0.24517  Biso   1.000  O
  O90      1.0000 0.90350  0.07300  0.24517  Biso   1.000  O
  O91      1.0000 0.07339  0.90254  0.24517  Biso   1.000  O
  O92      1.0000 0.07258  0.78094  0.24517  Biso   1.000  O
  O93      1.0000 0.78051  0.07258  0.07484  Biso   1.000  O
  O94      1.0000 0.90180  0.07227  0.95335  Biso   1.000  O
  O95      1.0000 0.34701  0.34099  0.80335  Biso   1.000  O
  O96      1.0000 0.34631  0.34068  0.68186  Biso   1.000  O
  O97      1.0000 0.51828  0.63232  0.51154  Biso   1.000  O
  O98      1.0000 0.63947  0.51072  0.51154  Biso   1.000  O
  O99      1.0000 0.63933  0.34068  0.68186  Biso   1.000  O
  O100     1.0000 0.51804  0.34099  0.80335  Biso   1.000  O
  O101     1.0000 0.34726  0.63232  0.51154  Biso   1.000  O
  O102     1.0000 0.34645  0.51072  0.51154  Biso   1.000  O
  O103     1.0000 0.51634  0.34026  0.51154  Biso   1.000  O
  O104     1.0000 0.63834  0.34026  0.51154  Biso   1.000  O
  O105     1.0000 0.34825  0.63274  0.68186  Biso   1.000  O
