data_image0
_cell_length_a       18.3149
_cell_length_b       18.3149
_cell_length_c       18.3149
_cell_angle_alpha    60.3295
_cell_angle_beta     60.3295
_cell_angle_gamma    60.3295

_symmetry_space_group_name_H-M    "P 1"
_symmetry_int_tables_number       1

loop_
  _symmetry_equiv_pos_as_xyz
  'x, y, z'

loop_
  _atom_site_label
  _atom_site_occupancy
  _atom_site_fract_x
  _atom_site_fract_y
  _atom_site_fract_z
  _atom_site_thermal_displace_type
  _atom_site_B_iso_or_equiv
  _atom_site_type_symbol
  Zn1      1.0000 0.20609  0.20609  0.20609  Biso   1.000  Zn
  Zn2      1.0000 0.79391  0.79391  0.79391  Biso   1.000  Zn
  Zn3      1.0000 0.20677  0.37952  0.20677  Biso   1.000  Zn
  Zn4      1.0000 0.20677  0.20677  0.37952  Biso   1.000  Zn
  Zn5      1.0000 0.37952  0.20677  0.20677  Biso   1.000  Zn
  Zn6      1.0000 0.62048  0.79323  0.79323  Biso   1.000  Zn
  Zn7      1.0000 0.79323  0.79323  0.62048  Biso   1.000  Zn
  Zn8      1.0000 0.79323  0.62048  0.79323  Biso   1.000  Zn
  H1       1.0000 0.04260  0.34350  0.56530  Biso   1.000  H
  H2       1.0000 0.56530  0.04260  0.34350  Biso   1.000  H
  H3       1.0000 0.34350  0.56530  0.04260  Biso   1.000  H
  H4       1.0000 0.65650  0.95740  0.43470  Biso   1.000  H
  H5       1.0000 0.95740  0.43470  0.65650  Biso   1.000  H
  H6       1.0000 0.43470  0.65650  0.95740  Biso   1.000  H
  H7       1.0000 0.95740  0.65650  0.43470  Biso   1.000  H
  H8       1.0000 0.43470  0.95740  0.65650  Biso   1.000  H
  H9       1.0000 0.65650  0.43470  0.95740  Biso   1.000  H
  H10      1.0000 0.34350  0.04260  0.56530  Biso   1.000  H
  H11      1.0000 0.04260  0.56530  0.34350  Biso   1.000  H
  H12      1.0000 0.56530  0.34350  0.04260  Biso   1.000  H
  H13      1.0000 0.04880  0.55860  0.04880  Biso   1.000  H
  H14      1.0000 0.04170  0.34450  0.04170  Biso   1.000  H
  H15      1.0000 0.04880  0.04880  0.55860  Biso   1.000  H
  H16      1.0000 0.04170  0.04170  0.34450  Biso   1.000  H
  H17      1.0000 0.55860  0.04880  0.04880  Biso   1.000  H
  H18      1.0000 0.34450  0.04170  0.04170  Biso   1.000  H
  H19      1.0000 0.44140  0.95120  0.95120  Biso   1.000  H
  H20      1.0000 0.65550  0.95830  0.95830  Biso   1.000  H
  H21      1.0000 0.95120  0.95120  0.44140  Biso   1.000  H
  H22      1.0000 0.95830  0.95830  0.65550  Biso   1.000  H
  H23      1.0000 0.95120  0.44140  0.95120  Biso   1.000  H
  H24      1.0000 0.95830  0.65550  0.95830  Biso   1.000  H
  C1       1.0000 0.02770  0.40510  0.53870  Biso   1.000  C
  C2       1.0000 0.53870  0.02770  0.40510  Biso   1.000  C
  C3       1.0000 0.40510  0.53870  0.02770  Biso   1.000  C
  C4       1.0000 0.59490  0.97230  0.46130  Biso   1.000  C
  C5       1.0000 0.97230  0.46130  0.59490  Biso   1.000  C
  C6       1.0000 0.46130  0.59490  0.97230  Biso   1.000  C
  C7       1.0000 0.97230  0.59490  0.46130  Biso   1.000  C
  C8       1.0000 0.46130  0.97230  0.59490  Biso   1.000  C
  C9       1.0000 0.59490  0.46130  0.97230  Biso   1.000  C
  C10      1.0000 0.40510  0.02770  0.53870  Biso   1.000  C
  C11      1.0000 0.02770  0.53870  0.40510  Biso   1.000  C
  C12      1.0000 0.53870  0.40510  0.02770  Biso   1.000  C
  C13      1.0000 0.11130  0.39010  0.11130  Biso   1.000  C
  C14      1.0000 0.05390  0.44400  0.05390  Biso   1.000  C
  C15      1.0000 0.02940  0.53530  0.02940  Biso   1.000  C
  C16      1.0000 0.02520  0.40600  0.02520  Biso   1.000  C
  C17      1.0000 0.11130  0.11130  0.39010  Biso   1.000  C
  C18      1.0000 0.05390  0.05390  0.44400  Biso   1.000  C
  C19      1.0000 0.02940  0.02940  0.53530  Biso   1.000  C
  C20      1.0000 0.02520  0.02520  0.40600  Biso   1.000  C
  C21      1.0000 0.39010  0.11130  0.11130  Biso   1.000  C
  C22      1.0000 0.44400  0.05390  0.05390  Biso   1.000  C
  C23      1.0000 0.53530  0.02940  0.02940  Biso   1.000  C
  C24      1.0000 0.40600  0.02520  0.02520  Biso   1.000  C
  C25      1.0000 0.60990  0.88870  0.88870  Biso   1.000  C
  C26      1.0000 0.55600  0.94610  0.94610  Biso   1.000  C
  C27      1.0000 0.46470  0.97060  0.97060  Biso   1.000  C
  C28      1.0000 0.59400  0.97480  0.97480  Biso   1.000  C
  C29      1.0000 0.88870  0.88870  0.60990  Biso   1.000  C
  C30      1.0000 0.94610  0.94610  0.55600  Biso   1.000  C
  C31      1.0000 0.97060  0.97060  0.46470  Biso   1.000  C
  C32      1.0000 0.97480  0.97480  0.59400  Biso   1.000  C
  C33      1.0000 0.88870  0.60990  0.88870  Biso   1.000  C
  C34      1.0000 0.94610  0.55600  0.94610  Biso   1.000  C
  C35      1.0000 0.97060  0.46470  0.97060  Biso   1.000  C
  C36      1.0000 0.97480  0.59400  0.97480  Biso   1.000  C
  C37      1.0000 0.11170  0.38940  0.38940  Biso   1.000  C
  C38      1.0000 0.05990  0.44245  0.44245  Biso   1.000  C
  C39      1.0000 0.38940  0.11170  0.38940  Biso   1.000  C
  C40      1.0000 0.44245  0.05990  0.44245  Biso   1.000  C
  C41      1.0000 0.38940  0.38940  0.11170  Biso   1.000  C
  C42      1.0000 0.44245  0.44245  0.05990  Biso   1.000  C
  C43      1.0000 0.61060  0.88830  0.61060  Biso   1.000  C
  C44      1.0000 0.55755  0.94010  0.55755  Biso   1.000  C
  C45      1.0000 0.88830  0.61060  0.61060  Biso   1.000  C
  C46      1.0000 0.94010  0.55755  0.55755  Biso   1.000  C
  C47      1.0000 0.61060  0.61060  0.88830  Biso   1.000  C
  C48      1.0000 0.55755  0.55755  0.94010  Biso   1.000  C
  O1       1.0000 0.13529  0.42759  0.30119  Biso   1.000  O
  O2       1.0000 0.30119  0.13529  0.42759  Biso   1.000  O
  O3       1.0000 0.42759  0.30119  0.13529  Biso   1.000  O
  O4       1.0000 0.57241  0.86471  0.69881  Biso   1.000  O
  O5       1.0000 0.86471  0.69881  0.57241  Biso   1.000  O
  O6       1.0000 0.69881  0.57241  0.86471  Biso   1.000  O
  O7       1.0000 0.86471  0.57241  0.69881  Biso   1.000  O
  O8       1.0000 0.69881  0.86471  0.57241  Biso   1.000  O
  O9       1.0000 0.57241  0.69881  0.86471  Biso   1.000  O
  O10      1.0000 0.42759  0.13529  0.30119  Biso   1.000  O
  O11      1.0000 0.13529  0.30119  0.42759  Biso   1.000  O
  O12      1.0000 0.30119  0.42759  0.13529  Biso   1.000  O
  O13      1.0000 0.25153  0.25153  0.25153  Biso   1.000  O
  O14      1.0000 0.74847  0.74847  0.74847  Biso   1.000  O
  O15      1.0000 0.13410  0.30220  0.13410  Biso   1.000  O
  O16      1.0000 0.13380  0.42820  0.13380  Biso   1.000  O
  O17      1.0000 0.13410  0.13410  0.30220  Biso   1.000  O
  O18      1.0000 0.13380  0.13380  0.42820  Biso   1.000  O
  O19      1.0000 0.30220  0.13410  0.13410  Biso   1.000  O
  O20      1.0000 0.42820  0.13380  0.13380  Biso   1.000  O
  O21      1.0000 0.69780  0.86590  0.86590  Biso   1.000  O
  O22      1.0000 0.57180  0.86620  0.86620  Biso   1.000  O
  O23      1.0000 0.86590  0.86590  0.69780  Biso   1.000  O
  O24      1.0000 0.86620  0.86620  0.57180  Biso   1.000  O
  O25      1.0000 0.86590  0.69780  0.86590  Biso   1.000  O
  O26      1.0000 0.86620  0.57180  0.86620  Biso   1.000  O
  Zn9      1.0000 0.00000  0.00000  0.00000  Biso   1.000  Zn
  Zn10     1.0000 0.00101  0.00043  0.17287  Biso   1.000  Zn
  Zn11     1.0000 0.82742  0.00043  0.17287  Biso   1.000  Zn
  Zn12     1.0000 0.99986  0.82742  0.17287  Biso   1.000  Zn
  Zn13     1.0000 0.42015  0.41356  0.75707  Biso   1.000  Zn
  Zn14     1.0000 0.41914  0.41313  0.58420  Biso   1.000  Zn
  Zn15     1.0000 0.42029  0.58615  0.58420  Biso   1.000  Zn
  Zn16     1.0000 0.59273  0.41313  0.58420  Biso   1.000  Zn
  H25      1.0000 0.16711  0.16283  0.81139  Biso   1.000  H
  H26      1.0000 0.16260  0.16089  0.03568  Biso   1.000  H
  H27      1.0000 0.64218  0.86353  0.33354  Biso   1.000  H
  H28      1.0000 0.86841  0.63988  0.33354  Biso   1.000  H
  H29      1.0000 0.16577  0.63914  0.03568  Biso   1.000  H
  H30      1.0000 0.16513  0.86472  0.81139  Biso   1.000  H
  H31      1.0000 0.64416  0.16164  0.33354  Biso   1.000  H
  H32      1.0000 0.86524  0.16164  0.33354  Biso   1.000  H
  H33      1.0000 0.16235  0.86353  0.33354  Biso   1.000  H
  H34      1.0000 0.16751  0.63988  0.33354  Biso   1.000  H
  H35      1.0000 0.64242  0.16089  0.03568  Biso   1.000  H
  H36      1.0000 0.86802  0.16283  0.81139  Biso   1.000  H
  H37      1.0000 0.25304  0.25073  0.94568  Biso   1.000  H
  H38      1.0000 0.25755  0.25268  0.72139  Biso   1.000  H
  H39      1.0000 0.55174  0.77368  0.42353  Biso   1.000  H
  H40      1.0000 0.77797  0.55004  0.42353  Biso   1.000  H
  H41      1.0000 0.77773  0.25268  0.72139  Biso   1.000  H
  H42      1.0000 0.55213  0.25073  0.94568  Biso   1.000  H
  H43      1.0000 0.25264  0.77368  0.42353  Biso   1.000  H
  H44      1.0000 0.25780  0.55004  0.42353  Biso   1.000  H
  H45      1.0000 0.55491  0.25193  0.42353  Biso   1.000  H
  H46      1.0000 0.77599  0.25193  0.42353  Biso   1.000  H
  H47      1.0000 0.25438  0.77443  0.72139  Biso   1.000  H
  H48      1.0000 0.25502  0.54884  0.94568  Biso   1.000  H
  C49      1.0000 0.18575  0.18120  0.83778  Biso   1.000  C
  C50      1.0000 0.18072  0.17904  0.97271  Biso   1.000  C
  C51      1.0000 0.66837  0.80055  0.35183  Biso   1.000  C
  C52      1.0000 0.80547  0.66634  0.35183  Biso   1.000  C
  C53      1.0000 0.18395  0.66539  0.97271  Biso   1.000  C
  C54      1.0000 0.18323  0.80177  0.83778  Biso   1.000  C
  C55      1.0000 0.67089  0.17998  0.35183  Biso   1.000  C
  C56      1.0000 0.80224  0.17998  0.35183  Biso   1.000  C
  C57      1.0000 0.18040  0.80055  0.35183  Biso   1.000  C
  C58      1.0000 0.18615  0.66634  0.35183  Biso   1.000  C
  C59      1.0000 0.66868  0.17904  0.97271  Biso   1.000  C
  C60      1.0000 0.80507  0.18120  0.83778  Biso   1.000  C
  C61      1.0000 0.23440  0.23237  0.91929  Biso   1.000  C
  C62      1.0000 0.23943  0.23453  0.78436  Biso   1.000  C
  C63      1.0000 0.61468  0.74722  0.40525  Biso   1.000  C
  C64      1.0000 0.75178  0.61301  0.40525  Biso   1.000  C
  C65      1.0000 0.75147  0.23453  0.78436  Biso   1.000  C
  C66      1.0000 0.61508  0.23237  0.91929  Biso   1.000  C
  C67      1.0000 0.23400  0.74722  0.40525  Biso   1.000  C
  C68      1.0000 0.23975  0.61301  0.40525  Biso   1.000  C
  C69      1.0000 0.61791  0.23358  0.40525  Biso   1.000  C
  C70      1.0000 0.74926  0.23358  0.40525  Biso   1.000  C
  C71      1.0000 0.23620  0.74817  0.78436  Biso   1.000  C
  C72      1.0000 0.23692  0.61179  0.91929  Biso   1.000  C
  C73      1.0000 0.09556  0.09465  0.99185  Biso   1.000  C
  C74      1.0000 0.15356  0.15228  0.93413  Biso   1.000  C
  C75      1.0000 0.81857  0.81949  0.26747  Biso   1.000  C
  C76      1.0000 0.76056  0.76187  0.32519  Biso   1.000  C
  C77      1.0000 0.09373  0.81880  0.99185  Biso   1.000  C
  C78      1.0000 0.15096  0.76089  0.93413  Biso   1.000  C
  C79      1.0000 0.82040  0.09534  0.26747  Biso   1.000  C
  C80      1.0000 0.76316  0.15325  0.32519  Biso   1.000  C
  C81      1.0000 0.09533  0.81949  0.26747  Biso   1.000  C
  C82      1.0000 0.15324  0.76187  0.32519  Biso   1.000  C
  C83      1.0000 0.81880  0.09465  0.99185  Biso   1.000  C
  C84      1.0000 0.76089  0.15228  0.93413  Biso   1.000  C
  C85      1.0000 0.32459  0.31891  0.76523  Biso   1.000  C
  C86      1.0000 0.26659  0.26129  0.82295  Biso   1.000  C
  C87      1.0000 0.60158  0.59407  0.48961  Biso   1.000  C
  C88      1.0000 0.65959  0.65170  0.43189  Biso   1.000  C
  C89      1.0000 0.60135  0.31891  0.76523  Biso   1.000  C
  C90      1.0000 0.65926  0.26129  0.82295  Biso   1.000  C
  C91      1.0000 0.32482  0.59407  0.48961  Biso   1.000  C
  C92      1.0000 0.26691  0.65170  0.43189  Biso   1.000  C
  C93      1.0000 0.59975  0.31822  0.48961  Biso   1.000  C
  C94      1.0000 0.65699  0.26031  0.43189  Biso   1.000  C
  C95      1.0000 0.32643  0.59476  0.76523  Biso   1.000  C
  C96      1.0000 0.26919  0.65267  0.82295  Biso   1.000  C
  O27      1.0000 0.95706  0.95707  0.12966  Biso   1.000  O
  O28      1.0000 0.46309  0.45649  0.62742  Biso   1.000  O
  O29      1.0000 0.07305  0.07250  0.95282  Biso   1.000  O
  O30      1.0000 0.07376  0.07280  0.07495  Biso   1.000  O
  O31      1.0000 0.77981  0.90261  0.24543  Biso   1.000  O
  O32      1.0000 0.90163  0.78038  0.24543  Biso   1.000  O
  O33      1.0000 0.07182  0.77995  0.07495  Biso   1.000  O
  O34      1.0000 0.07192  0.90188  0.95282  Biso   1.000  O
  O35      1.0000 0.78094  0.07323  0.24543  Biso   1.000  O
  O36      1.0000 0.90358  0.07323  0.24543  Biso   1.000  O
  O37      1.0000 0.07362  0.90261  0.24543  Biso   1.000  O
  O38      1.0000 0.07281  0.78038  0.24543  Biso   1.000  O
  O39      1.0000 0.77995  0.07280  0.07495  Biso   1.000  O
  O40      1.0000 0.90187  0.07250  0.95282  Biso   1.000  O
  O41      1.0000 0.34710  0.34107  0.80425  Biso   1.000  O
  O42      1.0000 0.34639  0.34076  0.68212  Biso   1.000  O
  O43      1.0000 0.51852  0.63318  0.51165  Biso   1.000  O
  O44      1.0000 0.64034  0.51095  0.51165  Biso   1.000  O
  O45      1.0000 0.64020  0.34076  0.68212  Biso   1.000  O
  O46      1.0000 0.51828  0.34107  0.80425  Biso   1.000  O
  O47      1.0000 0.34734  0.63318  0.51165  Biso   1.000  O
  O48      1.0000 0.34653  0.51095  0.51165  Biso   1.000  O
  O49      1.0000 0.51657  0.34034  0.51165  Biso   1.000  O
  O50      1.0000 0.63921  0.34034  0.51165  Biso   1.000  O
  O51      1.0000 0.34833  0.63361  0.68212  Biso   1.000  O
