data_image0
_cell_length_a       18.3149
_cell_length_b       18.3149
_cell_length_c       18.3149
_cell_angle_alpha    60.3295
_cell_angle_beta     60.3295
_cell_angle_gamma    60.3295

_symmetry_space_group_name_H-M    "P 1"
_symmetry_int_tables_number       1

loop_
  _symmetry_equiv_pos_as_xyz
  'x, y, z'

loop_
  _atom_site_label
  _atom_site_occupancy
  _atom_site_fract_x
  _atom_site_fract_y
  _atom_site_fract_z
  _atom_site_thermal_displace_type
  _atom_site_B_iso_or_equiv
  _atom_site_type_symbol
  C1       1.0000 0.20609  0.20609  0.20609  Biso   1.000  C
  C2       1.0000 0.79391  0.79391  0.79391  Biso   1.000  C
  C3       1.0000 0.20677  0.37952  0.20677  Biso   1.000  C
  C4       1.0000 0.20677  0.20677  0.37952  Biso   1.000  C
  C5       1.0000 0.37952  0.20677  0.20677  Biso   1.000  C
  C6       1.0000 0.62048  0.79323  0.79323  Biso   1.000  C
  C7       1.0000 0.79323  0.79323  0.62048  Biso   1.000  C
  C8       1.0000 0.79323  0.62048  0.79323  Biso   1.000  C
  C9       1.0000 0.04260  0.34350  0.56530  Biso   1.000  C
  C10      1.0000 0.56530  0.04260  0.34350  Biso   1.000  C
  C11      1.0000 0.34350  0.56530  0.04260  Biso   1.000  C
  C12      1.0000 0.65650  0.95740  0.43470  Biso   1.000  C
  C13      1.0000 0.95740  0.43470  0.65650  Biso   1.000  C
  C14      1.0000 0.43470  0.65650  0.95740  Biso   1.000  C
  C15      1.0000 0.95740  0.65650  0.43470  Biso   1.000  C
  C16      1.0000 0.43470  0.95740  0.65650  Biso   1.000  C
  C17      1.0000 0.65650  0.43470  0.95740  Biso   1.000  C
  C18      1.0000 0.34350  0.04260  0.56530  Biso   1.000  C
  C19      1.0000 0.04260  0.56530  0.34350  Biso   1.000  C
  C20      1.0000 0.56530  0.34350  0.04260  Biso   1.000  C
  C21      1.0000 0.04880  0.55860  0.04880  Biso   1.000  C
  C22      1.0000 0.04170  0.34450  0.04170  Biso   1.000  C
  C23      1.0000 0.04880  0.04880  0.55860  Biso   1.000  C
  C24      1.0000 0.04170  0.04170  0.34450  Biso   1.000  C
  C25      1.0000 0.55860  0.04880  0.04880  Biso   1.000  C
  C26      1.0000 0.34450  0.04170  0.04170  Biso   1.000  C
  C27      1.0000 0.44140  0.95120  0.95120  Biso   1.000  C
  C28      1.0000 0.65550  0.95830  0.95830  Biso   1.000  C
  C29      1.0000 0.95120  0.95120  0.44140  Biso   1.000  C
  C30      1.0000 0.95830  0.95830  0.65550  Biso   1.000  C
  C31      1.0000 0.95120  0.44140  0.95120  Biso   1.000  C
  C32      1.0000 0.95830  0.65550  0.95830  Biso   1.000  C
  C33      1.0000 0.02770  0.40510  0.53870  Biso   1.000  C
  C34      1.0000 0.53870  0.02770  0.40510  Biso   1.000  C
  C35      1.0000 0.40510  0.53870  0.02770  Biso   1.000  C
  C36      1.0000 0.59490  0.97230  0.46130  Biso   1.000  C
  C37      1.0000 0.97230  0.46130  0.59490  Biso   1.000  C
  C38      1.0000 0.46130  0.59490  0.97230  Biso   1.000  C
  C39      1.0000 0.97230  0.59490  0.46130  Biso   1.000  C
  C40      1.0000 0.46130  0.97230  0.59490  Biso   1.000  C
  C41      1.0000 0.59490  0.46130  0.97230  Biso   1.000  C
  C42      1.0000 0.40510  0.02770  0.53870  Biso   1.000  C
  C43      1.0000 0.02770  0.53870  0.40510  Biso   1.000  C
  C44      1.0000 0.53870  0.40510  0.02770  Biso   1.000  C
  C45      1.0000 0.11130  0.39010  0.11130  Biso   1.000  C
  C46      1.0000 0.05390  0.44400  0.05390  Biso   1.000  C
  C47      1.0000 0.02940  0.53530  0.02940  Biso   1.000  C
  C48      1.0000 0.02520  0.40600  0.02520  Biso   1.000  C
  C49      1.0000 0.11130  0.11130  0.39010  Biso   1.000  C
  C50      1.0000 0.05390  0.05390  0.44400  Biso   1.000  C
  C51      1.0000 0.02940  0.02940  0.53530  Biso   1.000  C
  C52      1.0000 0.02520  0.02520  0.40600  Biso   1.000  C
  C53      1.0000 0.39010  0.11130  0.11130  Biso   1.000  C
  C54      1.0000 0.44400  0.05390  0.05390  Biso   1.000  C
  C55      1.0000 0.53530  0.02940  0.02940  Biso   1.000  C
  C56      1.0000 0.40600  0.02520  0.02520  Biso   1.000  C
  C57      1.0000 0.60990  0.88870  0.88870  Biso   1.000  C
  C58      1.0000 0.55600  0.94610  0.94610  Biso   1.000  C
  C59      1.0000 0.46470  0.97060  0.97060  Biso   1.000  C
  C60      1.0000 0.59400  0.97480  0.97480  Biso   1.000  C
  C61      1.0000 0.88870  0.88870  0.60990  Biso   1.000  C
  C62      1.0000 0.94610  0.94610  0.55600  Biso   1.000  C
  C63      1.0000 0.97060  0.97060  0.46470  Biso   1.000  C
  C64      1.0000 0.97480  0.97480  0.59400  Biso   1.000  C
  C65      1.0000 0.88870  0.60990  0.88870  Biso   1.000  C
  C66      1.0000 0.94610  0.55600  0.94610  Biso   1.000  C
  C67      1.0000 0.97060  0.46470  0.97060  Biso   1.000  C
  C68      1.0000 0.97480  0.59400  0.97480  Biso   1.000  C
  C69      1.0000 0.11170  0.38940  0.38940  Biso   1.000  C
  C70      1.0000 0.05990  0.44245  0.44245  Biso   1.000  C
  C71      1.0000 0.38940  0.11170  0.38940  Biso   1.000  C
  C72      1.0000 0.44245  0.05990  0.44245  Biso   1.000  C
  C73      1.0000 0.38940  0.38940  0.11170  Biso   1.000  C
  C74      1.0000 0.44245  0.44245  0.05990  Biso   1.000  C
  C75      1.0000 0.61060  0.88830  0.61060  Biso   1.000  C
  C76      1.0000 0.55755  0.94010  0.55755  Biso   1.000  C
  C77      1.0000 0.88830  0.61060  0.61060  Biso   1.000  C
  C78      1.0000 0.94010  0.55755  0.55755  Biso   1.000  C
  C79      1.0000 0.61060  0.61060  0.88830  Biso   1.000  C
  C80      1.0000 0.55755  0.55755  0.94010  Biso   1.000  C
  C81      1.0000 0.13529  0.42759  0.30119  Biso   1.000  C
  C82      1.0000 0.30119  0.13529  0.42759  Biso   1.000  C
  C83      1.0000 0.42759  0.30119  0.13529  Biso   1.000  C
  C84      1.0000 0.57241  0.86471  0.69881  Biso   1.000  C
  C85      1.0000 0.86471  0.69881  0.57241  Biso   1.000  C
  C86      1.0000 0.69881  0.57241  0.86471  Biso   1.000  C
  C87      1.0000 0.86471  0.57241  0.69881  Biso   1.000  C
  C88      1.0000 0.69881  0.86471  0.57241  Biso   1.000  C
  C89      1.0000 0.57241  0.69881  0.86471  Biso   1.000  C
  C90      1.0000 0.42759  0.13529  0.30119  Biso   1.000  C
  C91      1.0000 0.13529  0.30119  0.42759  Biso   1.000  C
  C92      1.0000 0.30119  0.42759  0.13529  Biso   1.000  C
  C93      1.0000 0.25153  0.25153  0.25153  Biso   1.000  C
  C94      1.0000 0.74847  0.74847  0.74847  Biso   1.000  C
  C95      1.0000 0.13410  0.30220  0.13410  Biso   1.000  C
  C96      1.0000 0.13380  0.42820  0.13380  Biso   1.000  C
  C97      1.0000 0.13410  0.13410  0.30220  Biso   1.000  C
  C98      1.0000 0.13380  0.13380  0.42820  Biso   1.000  C
  C99      1.0000 0.30220  0.13410  0.13410  Biso   1.000  C
  C100     1.0000 0.42820  0.13380  0.13380  Biso   1.000  C
  C101     1.0000 0.69780  0.86590  0.86590  Biso   1.000  C
  C102     1.0000 0.57180  0.86620  0.86620  Biso   1.000  C
  C103     1.0000 0.86590  0.86590  0.69780  Biso   1.000  C
  C104     1.0000 0.86620  0.86620  0.57180  Biso   1.000  C
  C105     1.0000 0.86590  0.69780  0.86590  Biso   1.000  C
  C106     1.0000 0.86620  0.57180  0.86620  Biso   1.000  C
  O1       1.0000 0.00000  0.00000  0.00000  Biso   1.000  O
  O2       1.0000 0.00102  0.00042  0.17286  Biso   1.000  O
  O3       1.0000 0.82744  0.00043  0.17285  Biso   1.000  O
  O4       1.0000 0.99987  0.82743  0.17286  Biso   1.000  O
  O5       1.0000 0.41815  0.41155  0.75503  Biso   1.000  O
  O6       1.0000 0.41713  0.41112  0.58218  Biso   1.000  O
  O7       1.0000 0.41829  0.58411  0.58218  Biso   1.000  O
  O8       1.0000 0.59071  0.41112  0.58217  Biso   1.000  O
  O9       1.0000 0.16740  0.16309  0.81031  Biso   1.000  O
  O10      1.0000 0.16287  0.16114  0.03217  Biso   1.000  O
  O11      1.0000 0.64111  0.86003  0.33379  Biso   1.000  O
  O12      1.0000 0.86493  0.63881  0.33379  Biso   1.000  O
  O13      1.0000 0.16604  0.63806  0.03217  Biso   1.000  O
  O14      1.0000 0.16540  0.86123  0.81031  Biso   1.000  O
  O15      1.0000 0.64312  0.16190  0.33379  Biso   1.000  O
  O16      1.0000 0.86177  0.16190  0.33379  Biso   1.000  O
  O17      1.0000 0.16262  0.86003  0.33379  Biso   1.000  O
  O18      1.0000 0.16780  0.63881  0.33379  Biso   1.000  O
  O19      1.0000 0.64136  0.16114  0.03217  Biso   1.000  O
  O20      1.0000 0.86454  0.16309  0.81031  Biso   1.000  O
  O21      1.0000 0.25076  0.24845  0.94472  Biso   1.000  O
  O22      1.0000 0.25529  0.25040  0.72285  Biso   1.000  O
  O23      1.0000 0.55323  0.77273  0.42124  Biso   1.000  O
  O24      1.0000 0.77705  0.55151  0.42124  Biso   1.000  O
  O25      1.0000 0.77680  0.25040  0.72285  Biso   1.000  O
  O26      1.0000 0.55362  0.24845  0.94472  Biso   1.000  O
  O27      1.0000 0.25036  0.77273  0.42124  Biso   1.000  O
  O28      1.0000 0.25554  0.55151  0.42124  Biso   1.000  O
  O29      1.0000 0.55639  0.24964  0.42124  Biso   1.000  O
  O30      1.0000 0.77504  0.24964  0.42124  Biso   1.000  O
  O31      1.0000 0.25212  0.77348  0.72285  Biso   1.000  O
  O32      1.0000 0.25276  0.55032  0.94472  Biso   1.000  O
  O33      1.0000 0.18529  0.18072  0.83684  Biso   1.000  O
  O34      1.0000 0.18025  0.17855  0.97054  Biso   1.000  O
  O35      1.0000 0.66745  0.79839  0.35134  Biso   1.000  O
  O36      1.0000 0.80332  0.66541  0.35134  Biso   1.000  O
  O37      1.0000 0.18348  0.66446  0.97054  Biso   1.000  O
  O38      1.0000 0.18276  0.79961  0.83684  Biso   1.000  O
  O39      1.0000 0.66998  0.17951  0.35134  Biso   1.000  O
  O40      1.0000 0.80010  0.17951  0.35134  Biso   1.000  O
  O41      1.0000 0.17994  0.79839  0.35134  Biso   1.000  O
  O42      1.0000 0.18570  0.66541  0.35134  Biso   1.000  O
  O43      1.0000 0.66776  0.17855  0.97054  Biso   1.000  O
  O44      1.0000 0.80292  0.18072  0.83684  Biso   1.000  O
  O45      1.0000 0.23286  0.23082  0.91819  Biso   1.000  O
  O46      1.0000 0.23791  0.23299  0.78449  Biso   1.000  O
  O47      1.0000 0.61484  0.74613  0.40369  Biso   1.000  O
  O48      1.0000 0.75071  0.61315  0.40369  Biso   1.000  O
  O49      1.0000 0.75040  0.23299  0.78449  Biso   1.000  O
  O50      1.0000 0.61524  0.23082  0.91819  Biso   1.000  O
  O51      1.0000 0.23246  0.74613  0.40369  Biso   1.000  O
  O52      1.0000 0.23822  0.61315  0.40369  Biso   1.000  O
  O53      1.0000 0.61806  0.23203  0.40369  Biso   1.000  O
  O54      1.0000 0.74818  0.23203  0.40369  Biso   1.000  O
  O55      1.0000 0.23468  0.74708  0.78449  Biso   1.000  O
  O56      1.0000 0.23540  0.61193  0.91819  Biso   1.000  O
  O57      1.0000 0.09519  0.09426  0.99222  Biso   1.000  O
  O58      1.0000 0.15279  0.15147  0.93491  Biso   1.000  O
  O59      1.0000 0.81898  0.81988  0.26706  Biso   1.000  O
  O60      1.0000 0.76139  0.76266  0.32437  Biso   1.000  O
  O61      1.0000 0.09337  0.81919  0.99222  Biso   1.000  O
  O62      1.0000 0.15020  0.76169  0.93491  Biso   1.000  O
  O63      1.0000 0.82081  0.09495  0.26706  Biso   1.000  O
  O64      1.0000 0.76398  0.15245  0.32437  Biso   1.000  O
  O65      1.0000 0.09497  0.81988  0.26706  Biso   1.000  O
  O66      1.0000 0.15246  0.76266  0.32437  Biso   1.000  O
  O67      1.0000 0.81921  0.09426  0.99222  Biso   1.000  O
  O68      1.0000 0.76171  0.15147  0.93491  Biso   1.000  O
  O69      1.0000 0.32297  0.31728  0.76281  Biso   1.000  O
  O70      1.0000 0.26537  0.26007  0.82012  Biso   1.000  O
  O71      1.0000 0.59917  0.59166  0.48797  Biso   1.000  O
  O72      1.0000 0.65677  0.64888  0.43066  Biso   1.000  O
  O73      1.0000 0.59895  0.31728  0.76281  Biso   1.000  O
  O74      1.0000 0.65645  0.26007  0.82012  Biso   1.000  O
  O75      1.0000 0.32319  0.59166  0.48797  Biso   1.000  O
  O76      1.0000 0.26569  0.64888  0.43066  Biso   1.000  O
  O77      1.0000 0.59735  0.31659  0.48797  Biso   1.000  O
  O78      1.0000 0.65418  0.25909  0.43066  Biso   1.000  O
  O79      1.0000 0.32479  0.59235  0.76281  Biso   1.000  O
  O80      1.0000 0.26796  0.64985  0.82012  Biso   1.000  O
  O81      1.0000 0.95709  0.95707  0.12964  Biso   1.000  O
  O82      1.0000 0.46107  0.45447  0.62539  Biso   1.000  O
  O83      1.0000 0.07236  0.07178  0.95454  Biso   1.000  O
  O84      1.0000 0.07306  0.07208  0.07463  Biso   1.000  O
  O85      1.0000 0.78157  0.90230  0.24469  Biso   1.000  O
  O86      1.0000 0.90136  0.78211  0.24469  Biso   1.000  O
  O87      1.0000 0.07113  0.78169  0.07463  Biso   1.000  O
  O88      1.0000 0.07123  0.90158  0.95454  Biso   1.000  O
  O89      1.0000 0.78270  0.07251  0.24469  Biso   1.000  O
  O90      1.0000 0.90329  0.07251  0.24469  Biso   1.000  O
  O91      1.0000 0.07292  0.90230  0.24469  Biso   1.000  O
  O92      1.0000 0.07212  0.78211  0.24469  Biso   1.000  O
  O93      1.0000 0.78171  0.07208  0.07463  Biso   1.000  O
  O94      1.0000 0.90160  0.07178  0.95454  Biso   1.000  O
  O95      1.0000 0.34579  0.33976  0.80049  Biso   1.000  O
  O96      1.0000 0.34510  0.33946  0.68040  Biso   1.000  O
  O97      1.0000 0.51680  0.62943  0.51034  Biso   1.000  O
  O98      1.0000 0.63659  0.50924  0.51034  Biso   1.000  O
  O99      1.0000 0.63645  0.33946  0.68040  Biso   1.000  O
  O100     1.0000 0.51656  0.33976  0.80049  Biso   1.000  O
  O101     1.0000 0.34603  0.62943  0.51034  Biso   1.000  O
  O102     1.0000 0.34524  0.50924  0.51034  Biso   1.000  O
  O103     1.0000 0.51487  0.33903  0.51034  Biso   1.000  O
  O104     1.0000 0.63546  0.33903  0.51034  Biso   1.000  O
  O105     1.0000 0.34702  0.62985  0.68040  Biso   1.000  O
