data_image0
_cell_length_a       18.3149
_cell_length_b       18.3149
_cell_length_c       18.3149
_cell_angle_alpha    60.3295
_cell_angle_beta     60.3295
_cell_angle_gamma    60.3295

_symmetry_space_group_name_H-M    "P 1"
_symmetry_int_tables_number       1

loop_
  _symmetry_equiv_pos_as_xyz
  'x, y, z'

loop_
  _atom_site_label
  _atom_site_occupancy
  _atom_site_fract_x
  _atom_site_fract_y
  _atom_site_fract_z
  _atom_site_thermal_displace_type
  _atom_site_B_iso_or_equiv
  _atom_site_type_symbol
  C1       1.0000 0.20609  0.20609  0.20609  Biso   1.000  C
  C2       1.0000 0.79391  0.79391  0.79391  Biso   1.000  C
  C3       1.0000 0.20677  0.37952  0.20677  Biso   1.000  C
  C4       1.0000 0.20677  0.20677  0.37952  Biso   1.000  C
  C5       1.0000 0.37952  0.20677  0.20677  Biso   1.000  C
  C6       1.0000 0.62048  0.79323  0.79323  Biso   1.000  C
  C7       1.0000 0.79323  0.79323  0.62048  Biso   1.000  C
  C8       1.0000 0.79323  0.62048  0.79323  Biso   1.000  C
  C9       1.0000 0.04260  0.34350  0.56530  Biso   1.000  C
  C10      1.0000 0.56530  0.04260  0.34350  Biso   1.000  C
  C11      1.0000 0.34350  0.56530  0.04260  Biso   1.000  C
  C12      1.0000 0.65650  0.95740  0.43470  Biso   1.000  C
  C13      1.0000 0.95740  0.43470  0.65650  Biso   1.000  C
  C14      1.0000 0.43470  0.65650  0.95740  Biso   1.000  C
  C15      1.0000 0.95740  0.65650  0.43470  Biso   1.000  C
  C16      1.0000 0.43470  0.95740  0.65650  Biso   1.000  C
  C17      1.0000 0.65650  0.43470  0.95740  Biso   1.000  C
  C18      1.0000 0.34350  0.04260  0.56530  Biso   1.000  C
  C19      1.0000 0.04260  0.56530  0.34350  Biso   1.000  C
  C20      1.0000 0.56530  0.34350  0.04260  Biso   1.000  C
  C21      1.0000 0.04880  0.55860  0.04880  Biso   1.000  C
  C22      1.0000 0.04170  0.34450  0.04170  Biso   1.000  C
  C23      1.0000 0.04880  0.04880  0.55860  Biso   1.000  C
  C24      1.0000 0.04170  0.04170  0.34450  Biso   1.000  C
  C25      1.0000 0.55860  0.04880  0.04880  Biso   1.000  C
  C26      1.0000 0.34450  0.04170  0.04170  Biso   1.000  C
  C27      1.0000 0.44140  0.95120  0.95120  Biso   1.000  C
  C28      1.0000 0.65550  0.95830  0.95830  Biso   1.000  C
  C29      1.0000 0.95120  0.95120  0.44140  Biso   1.000  C
  C30      1.0000 0.95830  0.95830  0.65550  Biso   1.000  C
  C31      1.0000 0.95120  0.44140  0.95120  Biso   1.000  C
  C32      1.0000 0.95830  0.65550  0.95830  Biso   1.000  C
  C33      1.0000 0.02770  0.40510  0.53870  Biso   1.000  C
  C34      1.0000 0.53870  0.02770  0.40510  Biso   1.000  C
  C35      1.0000 0.40510  0.53870  0.02770  Biso   1.000  C
  C36      1.0000 0.59490  0.97230  0.46130  Biso   1.000  C
  C37      1.0000 0.97230  0.46130  0.59490  Biso   1.000  C
  C38      1.0000 0.46130  0.59490  0.97230  Biso   1.000  C
  C39      1.0000 0.97230  0.59490  0.46130  Biso   1.000  C
  C40      1.0000 0.46130  0.97230  0.59490  Biso   1.000  C
  C41      1.0000 0.59490  0.46130  0.97230  Biso   1.000  C
  C42      1.0000 0.40510  0.02770  0.53870  Biso   1.000  C
  C43      1.0000 0.02770  0.53870  0.40510  Biso   1.000  C
  C44      1.0000 0.53870  0.40510  0.02770  Biso   1.000  C
  C45      1.0000 0.11130  0.39010  0.11130  Biso   1.000  C
  C46      1.0000 0.05390  0.44400  0.05390  Biso   1.000  C
  C47      1.0000 0.02940  0.53530  0.02940  Biso   1.000  C
  C48      1.0000 0.02520  0.40600  0.02520  Biso   1.000  C
  C49      1.0000 0.11130  0.11130  0.39010  Biso   1.000  C
  C50      1.0000 0.05390  0.05390  0.44400  Biso   1.000  C
  C51      1.0000 0.02940  0.02940  0.53530  Biso   1.000  C
  C52      1.0000 0.02520  0.02520  0.40600  Biso   1.000  C
  C53      1.0000 0.39010  0.11130  0.11130  Biso   1.000  C
  C54      1.0000 0.44400  0.05390  0.05390  Biso   1.000  C
  C55      1.0000 0.53530  0.02940  0.02940  Biso   1.000  C
  C56      1.0000 0.40600  0.02520  0.02520  Biso   1.000  C
  C57      1.0000 0.60990  0.88870  0.88870  Biso   1.000  C
  C58      1.0000 0.55600  0.94610  0.94610  Biso   1.000  C
  C59      1.0000 0.46470  0.97060  0.97060  Biso   1.000  C
  C60      1.0000 0.59400  0.97480  0.97480  Biso   1.000  C
  C61      1.0000 0.88870  0.88870  0.60990  Biso   1.000  C
  C62      1.0000 0.94610  0.94610  0.55600  Biso   1.000  C
  C63      1.0000 0.97060  0.97060  0.46470  Biso   1.000  C
  C64      1.0000 0.97480  0.97480  0.59400  Biso   1.000  C
  C65      1.0000 0.88870  0.60990  0.88870  Biso   1.000  C
  C66      1.0000 0.94610  0.55600  0.94610  Biso   1.000  C
  C67      1.0000 0.97060  0.46470  0.97060  Biso   1.000  C
  C68      1.0000 0.97480  0.59400  0.97480  Biso   1.000  C
  C69      1.0000 0.11170  0.38940  0.38940  Biso   1.000  C
  C70      1.0000 0.05990  0.44245  0.44245  Biso   1.000  C
  C71      1.0000 0.38940  0.11170  0.38940  Biso   1.000  C
  C72      1.0000 0.44245  0.05990  0.44245  Biso   1.000  C
  C73      1.0000 0.38940  0.38940  0.11170  Biso   1.000  C
  C74      1.0000 0.44245  0.44245  0.05990  Biso   1.000  C
  C75      1.0000 0.61060  0.88830  0.61060  Biso   1.000  C
  C76      1.0000 0.55755  0.94010  0.55755  Biso   1.000  C
  C77      1.0000 0.88830  0.61060  0.61060  Biso   1.000  C
  C78      1.0000 0.94010  0.55755  0.55755  Biso   1.000  C
  C79      1.0000 0.61060  0.61060  0.88830  Biso   1.000  C
  C80      1.0000 0.55755  0.55755  0.94010  Biso   1.000  C
  C81      1.0000 0.13529  0.42759  0.30119  Biso   1.000  C
  C82      1.0000 0.30119  0.13529  0.42759  Biso   1.000  C
  C83      1.0000 0.42759  0.30119  0.13529  Biso   1.000  C
  C84      1.0000 0.57241  0.86471  0.69881  Biso   1.000  C
  C85      1.0000 0.86471  0.69881  0.57241  Biso   1.000  C
  C86      1.0000 0.69881  0.57241  0.86471  Biso   1.000  C
  C87      1.0000 0.86471  0.57241  0.69881  Biso   1.000  C
  C88      1.0000 0.69881  0.86471  0.57241  Biso   1.000  C
  C89      1.0000 0.57241  0.69881  0.86471  Biso   1.000  C
  C90      1.0000 0.42759  0.13529  0.30119  Biso   1.000  C
  C91      1.0000 0.13529  0.30119  0.42759  Biso   1.000  C
  C92      1.0000 0.30119  0.42759  0.13529  Biso   1.000  C
  C93      1.0000 0.25153  0.25153  0.25153  Biso   1.000  C
  C94      1.0000 0.74847  0.74847  0.74847  Biso   1.000  C
  C95      1.0000 0.13410  0.30220  0.13410  Biso   1.000  C
  C96      1.0000 0.13380  0.42820  0.13380  Biso   1.000  C
  C97      1.0000 0.13410  0.13410  0.30220  Biso   1.000  C
  C98      1.0000 0.13380  0.13380  0.42820  Biso   1.000  C
  C99      1.0000 0.30220  0.13410  0.13410  Biso   1.000  C
  C100     1.0000 0.42820  0.13380  0.13380  Biso   1.000  C
  C101     1.0000 0.69780  0.86590  0.86590  Biso   1.000  C
  C102     1.0000 0.57180  0.86620  0.86620  Biso   1.000  C
  C103     1.0000 0.86590  0.86590  0.69780  Biso   1.000  C
  C104     1.0000 0.86620  0.86620  0.57180  Biso   1.000  C
  C105     1.0000 0.86590  0.69780  0.86590  Biso   1.000  C
  C106     1.0000 0.86620  0.57180  0.86620  Biso   1.000  C
  O1       1.0000 0.00000  0.00000  0.00000  Biso   1.000  O
  O2       1.0000 0.00101  0.00043  0.17279  Biso   1.000  O
  O3       1.0000 0.82751  0.00043  0.17279  Biso   1.000  O
  O4       1.0000 0.99986  0.82750  0.17279  Biso   1.000  O
  O5       1.0000 0.41847  0.41189  0.75523  Biso   1.000  O
  O6       1.0000 0.41747  0.41146  0.58245  Biso   1.000  O
  O7       1.0000 0.41862  0.58439  0.58245  Biso   1.000  O
  O8       1.0000 0.59097  0.41146  0.58245  Biso   1.000  O
  O9       1.0000 0.16743  0.16314  0.81037  Biso   1.000  O
  O10      1.0000 0.16290  0.16119  0.03256  Biso   1.000  O
  O11      1.0000 0.64124  0.86049  0.33376  Biso   1.000  O
  O12      1.0000 0.86538  0.63895  0.33376  Biso   1.000  O
  O13      1.0000 0.16607  0.63820  0.03256  Biso   1.000  O
  O14      1.0000 0.16543  0.86169  0.81037  Biso   1.000  O
  O15      1.0000 0.64324  0.16195  0.33376  Biso   1.000  O
  O16      1.0000 0.86221  0.16195  0.33376  Biso   1.000  O
  O17      1.0000 0.16266  0.86049  0.33376  Biso   1.000  O
  O18      1.0000 0.16782  0.63895  0.33376  Biso   1.000  O
  O19      1.0000 0.64148  0.16119  0.03256  Biso   1.000  O
  O20      1.0000 0.86498  0.16314  0.81037  Biso   1.000  O
  O21      1.0000 0.25104  0.24875  0.94486  Biso   1.000  O
  O22      1.0000 0.25557  0.25070  0.72267  Biso   1.000  O
  O23      1.0000 0.55310  0.77294  0.42147  Biso   1.000  O
  O24      1.0000 0.77724  0.55140  0.42147  Biso   1.000  O
  O25      1.0000 0.77699  0.25070  0.72267  Biso   1.000  O
  O26      1.0000 0.55349  0.24875  0.94486  Biso   1.000  O
  O27      1.0000 0.25065  0.77294  0.42147  Biso   1.000  O
  O28      1.0000 0.25582  0.55140  0.42147  Biso   1.000  O
  O29      1.0000 0.55627  0.24994  0.42147  Biso   1.000  O
  O30      1.0000 0.77524  0.24994  0.42147  Biso   1.000  O
  O31      1.0000 0.25240  0.77369  0.72267  Biso   1.000  O
  O32      1.0000 0.25304  0.55020  0.94486  Biso   1.000  O
  O33      1.0000 0.18528  0.18073  0.83699  Biso   1.000  O
  O34      1.0000 0.18025  0.17857  0.97092  Biso   1.000  O
  O35      1.0000 0.66766  0.79885  0.35127  Biso   1.000  O
  O36      1.0000 0.80376  0.66564  0.35127  Biso   1.000  O
  O37      1.0000 0.18347  0.66468  0.97092  Biso   1.000  O
  O38      1.0000 0.18276  0.80006  0.83699  Biso   1.000  O
  O39      1.0000 0.67018  0.17952  0.35127  Biso   1.000  O
  O40      1.0000 0.80053  0.17952  0.35127  Biso   1.000  O
  O41      1.0000 0.17993  0.79885  0.35127  Biso   1.000  O
  O42      1.0000 0.18569  0.66564  0.35127  Biso   1.000  O
  O43      1.0000 0.66797  0.17857  0.97092  Biso   1.000  O
  O44      1.0000 0.80336  0.18073  0.83699  Biso   1.000  O
  O45      1.0000 0.23319  0.23116  0.91824  Biso   1.000  O
  O46      1.0000 0.23823  0.23332  0.78431  Biso   1.000  O
  O47      1.0000 0.61471  0.74625  0.40396  Biso   1.000  O
  O48      1.0000 0.75082  0.61304  0.40396  Biso   1.000  O
  O49      1.0000 0.75050  0.23332  0.78431  Biso   1.000  O
  O50      1.0000 0.61511  0.23116  0.91824  Biso   1.000  O
  O51      1.0000 0.23279  0.74625  0.40396  Biso   1.000  O
  O52      1.0000 0.23854  0.61304  0.40396  Biso   1.000  O
  O53      1.0000 0.61794  0.23237  0.40396  Biso   1.000  O
  O54      1.0000 0.74829  0.23237  0.40396  Biso   1.000  O
  O55      1.0000 0.23500  0.74721  0.78431  Biso   1.000  O
  O56      1.0000 0.23572  0.61183  0.91824  Biso   1.000  O
  O57      1.0000 0.09525  0.09434  0.99211  Biso   1.000  O
  O58      1.0000 0.15271  0.15142  0.93494  Biso   1.000  O
  O59      1.0000 0.81893  0.81985  0.26706  Biso   1.000  O
  O60      1.0000 0.76147  0.76277  0.32424  Biso   1.000  O
  O61      1.0000 0.09342  0.81916  0.99211  Biso   1.000  O
  O62      1.0000 0.15012  0.76179  0.93494  Biso   1.000  O
  O63      1.0000 0.82076  0.09503  0.26706  Biso   1.000  O
  O64      1.0000 0.76406  0.15239  0.32424  Biso   1.000  O
  O65      1.0000 0.09502  0.81985  0.26706  Biso   1.000  O
  O66      1.0000 0.15239  0.76277  0.32424  Biso   1.000  O
  O67      1.0000 0.81916  0.09434  0.99211  Biso   1.000  O
  O68      1.0000 0.76180  0.15142  0.93494  Biso   1.000  O
  O69      1.0000 0.32322  0.31755  0.76312  Biso   1.000  O
  O70      1.0000 0.26576  0.26047  0.82029  Biso   1.000  O
  O71      1.0000 0.59954  0.59204  0.48817  Biso   1.000  O
  O72      1.0000 0.65700  0.64912  0.43099  Biso   1.000  O
  O73      1.0000 0.59931  0.31755  0.76312  Biso   1.000  O
  O74      1.0000 0.65668  0.26047  0.82029  Biso   1.000  O
  O75      1.0000 0.32345  0.59204  0.48817  Biso   1.000  O
  O76      1.0000 0.26609  0.64912  0.43099  Biso   1.000  O
  O77      1.0000 0.59771  0.31686  0.48817  Biso   1.000  O
  O78      1.0000 0.65441  0.25950  0.43099  Biso   1.000  O
  O79      1.0000 0.32505  0.59273  0.76312  Biso   1.000  O
  O80      1.0000 0.26835  0.65010  0.82029  Biso   1.000  O
  O81      1.0000 0.95709  0.95709  0.12959  Biso   1.000  O
  O82      1.0000 0.46138  0.45480  0.62564  Biso   1.000  O
  O83      1.0000 0.07243  0.07186  0.95410  Biso   1.000  O
  O84      1.0000 0.07313  0.07216  0.07485  Biso   1.000  O
  O85      1.0000 0.78118  0.90260  0.24470  Biso   1.000  O
  O86      1.0000 0.90163  0.78174  0.24470  Biso   1.000  O
  O87      1.0000 0.07120  0.78132  0.07485  Biso   1.000  O
  O88      1.0000 0.07130  0.90187  0.95410  Biso   1.000  O
  O89      1.0000 0.78231  0.07259  0.24470  Biso   1.000  O
  O90      1.0000 0.90357  0.07259  0.24470  Biso   1.000  O
  O91      1.0000 0.07299  0.90260  0.24470  Biso   1.000  O
  O92      1.0000 0.07219  0.78174  0.24470  Biso   1.000  O
  O93      1.0000 0.78132  0.07216  0.07485  Biso   1.000  O
  O94      1.0000 0.90187  0.07186  0.95410  Biso   1.000  O
  O95      1.0000 0.34605  0.34003  0.80114  Biso   1.000  O
  O96      1.0000 0.34534  0.33973  0.68038  Biso   1.000  O
  O97      1.0000 0.51684  0.63015  0.51053  Biso   1.000  O
  O98      1.0000 0.63729  0.50929  0.51053  Biso   1.000  O
  O99      1.0000 0.63715  0.33973  0.68038  Biso   1.000  O
  O100     1.0000 0.51660  0.34003  0.80114  Biso   1.000  O
  O101     1.0000 0.34629  0.63015  0.51053  Biso   1.000  O
  O102     1.0000 0.34548  0.50929  0.51053  Biso   1.000  O
  O103     1.0000 0.51491  0.33930  0.51053  Biso   1.000  O
  O104     1.0000 0.63617  0.33930  0.51053  Biso   1.000  O
  O105     1.0000 0.34728  0.63057  0.68038  Biso   1.000  O
