data_image0
_cell_length_a       18.3149
_cell_length_b       18.3149
_cell_length_c       18.3149
_cell_angle_alpha    60.3295
_cell_angle_beta     60.3295
_cell_angle_gamma    60.3295

_symmetry_space_group_name_H-M    "P 1"
_symmetry_int_tables_number       1

loop_
  _symmetry_equiv_pos_as_xyz
  'x, y, z'

loop_
  _atom_site_label
  _atom_site_occupancy
  _atom_site_fract_x
  _atom_site_fract_y
  _atom_site_fract_z
  _atom_site_thermal_displace_type
  _atom_site_B_iso_or_equiv
  _atom_site_type_symbol
  C1       1.0000 0.20609  0.20609  0.20609  Biso   1.000  C
  C2       1.0000 0.79391  0.79391  0.79391  Biso   1.000  C
  C3       1.0000 0.20677  0.37952  0.20677  Biso   1.000  C
  C4       1.0000 0.20677  0.20677  0.37952  Biso   1.000  C
  C5       1.0000 0.37952  0.20677  0.20677  Biso   1.000  C
  C6       1.0000 0.62048  0.79323  0.79323  Biso   1.000  C
  C7       1.0000 0.79323  0.79323  0.62048  Biso   1.000  C
  C8       1.0000 0.79323  0.62048  0.79323  Biso   1.000  C
  C9       1.0000 0.04260  0.34350  0.56530  Biso   1.000  C
  C10      1.0000 0.56530  0.04260  0.34350  Biso   1.000  C
  C11      1.0000 0.34350  0.56530  0.04260  Biso   1.000  C
  C12      1.0000 0.65650  0.95740  0.43470  Biso   1.000  C
  C13      1.0000 0.95740  0.43470  0.65650  Biso   1.000  C
  C14      1.0000 0.43470  0.65650  0.95740  Biso   1.000  C
  C15      1.0000 0.95740  0.65650  0.43470  Biso   1.000  C
  C16      1.0000 0.43470  0.95740  0.65650  Biso   1.000  C
  C17      1.0000 0.65650  0.43470  0.95740  Biso   1.000  C
  C18      1.0000 0.34350  0.04260  0.56530  Biso   1.000  C
  C19      1.0000 0.04260  0.56530  0.34350  Biso   1.000  C
  C20      1.0000 0.56530  0.34350  0.04260  Biso   1.000  C
  C21      1.0000 0.04880  0.55860  0.04880  Biso   1.000  C
  C22      1.0000 0.04170  0.34450  0.04170  Biso   1.000  C
  C23      1.0000 0.04880  0.04880  0.55860  Biso   1.000  C
  C24      1.0000 0.04170  0.04170  0.34450  Biso   1.000  C
  C25      1.0000 0.55860  0.04880  0.04880  Biso   1.000  C
  C26      1.0000 0.34450  0.04170  0.04170  Biso   1.000  C
  C27      1.0000 0.44140  0.95120  0.95120  Biso   1.000  C
  C28      1.0000 0.65550  0.95830  0.95830  Biso   1.000  C
  C29      1.0000 0.95120  0.95120  0.44140  Biso   1.000  C
  C30      1.0000 0.95830  0.95830  0.65550  Biso   1.000  C
  C31      1.0000 0.95120  0.44140  0.95120  Biso   1.000  C
  C32      1.0000 0.95830  0.65550  0.95830  Biso   1.000  C
  C33      1.0000 0.02770  0.40510  0.53870  Biso   1.000  C
  C34      1.0000 0.53870  0.02770  0.40510  Biso   1.000  C
  C35      1.0000 0.40510  0.53870  0.02770  Biso   1.000  C
  C36      1.0000 0.59490  0.97230  0.46130  Biso   1.000  C
  C37      1.0000 0.97230  0.46130  0.59490  Biso   1.000  C
  C38      1.0000 0.46130  0.59490  0.97230  Biso   1.000  C
  C39      1.0000 0.97230  0.59490  0.46130  Biso   1.000  C
  C40      1.0000 0.46130  0.97230  0.59490  Biso   1.000  C
  C41      1.0000 0.59490  0.46130  0.97230  Biso   1.000  C
  C42      1.0000 0.40510  0.02770  0.53870  Biso   1.000  C
  C43      1.0000 0.02770  0.53870  0.40510  Biso   1.000  C
  C44      1.0000 0.53870  0.40510  0.02770  Biso   1.000  C
  C45      1.0000 0.11130  0.39010  0.11130  Biso   1.000  C
  C46      1.0000 0.05390  0.44400  0.05390  Biso   1.000  C
  C47      1.0000 0.02940  0.53530  0.02940  Biso   1.000  C
  C48      1.0000 0.02520  0.40600  0.02520  Biso   1.000  C
  C49      1.0000 0.11130  0.11130  0.39010  Biso   1.000  C
  C50      1.0000 0.05390  0.05390  0.44400  Biso   1.000  C
  C51      1.0000 0.02940  0.02940  0.53530  Biso   1.000  C
  C52      1.0000 0.02520  0.02520  0.40600  Biso   1.000  C
  C53      1.0000 0.39010  0.11130  0.11130  Biso   1.000  C
  C54      1.0000 0.44400  0.05390  0.05390  Biso   1.000  C
  C55      1.0000 0.53530  0.02940  0.02940  Biso   1.000  C
  C56      1.0000 0.40600  0.02520  0.02520  Biso   1.000  C
  C57      1.0000 0.60990  0.88870  0.88870  Biso   1.000  C
  C58      1.0000 0.55600  0.94610  0.94610  Biso   1.000  C
  C59      1.0000 0.46470  0.97060  0.97060  Biso   1.000  C
  C60      1.0000 0.59400  0.97480  0.97480  Biso   1.000  C
  C61      1.0000 0.88870  0.88870  0.60990  Biso   1.000  C
  C62      1.0000 0.94610  0.94610  0.55600  Biso   1.000  C
  C63      1.0000 0.97060  0.97060  0.46470  Biso   1.000  C
  C64      1.0000 0.97480  0.97480  0.59400  Biso   1.000  C
  C65      1.0000 0.88870  0.60990  0.88870  Biso   1.000  C
  C66      1.0000 0.94610  0.55600  0.94610  Biso   1.000  C
  C67      1.0000 0.97060  0.46470  0.97060  Biso   1.000  C
  C68      1.0000 0.97480  0.59400  0.97480  Biso   1.000  C
  C69      1.0000 0.11170  0.38940  0.38940  Biso   1.000  C
  C70      1.0000 0.05990  0.44245  0.44245  Biso   1.000  C
  C71      1.0000 0.38940  0.11170  0.38940  Biso   1.000  C
  C72      1.0000 0.44245  0.05990  0.44245  Biso   1.000  C
  C73      1.0000 0.38940  0.38940  0.11170  Biso   1.000  C
  C74      1.0000 0.44245  0.44245  0.05990  Biso   1.000  C
  C75      1.0000 0.61060  0.88830  0.61060  Biso   1.000  C
  C76      1.0000 0.55755  0.94010  0.55755  Biso   1.000  C
  C77      1.0000 0.88830  0.61060  0.61060  Biso   1.000  C
  C78      1.0000 0.94010  0.55755  0.55755  Biso   1.000  C
  C79      1.0000 0.61060  0.61060  0.88830  Biso   1.000  C
  C80      1.0000 0.55755  0.55755  0.94010  Biso   1.000  C
  C81      1.0000 0.13529  0.42759  0.30119  Biso   1.000  C
  C82      1.0000 0.30119  0.13529  0.42759  Biso   1.000  C
  C83      1.0000 0.42759  0.30119  0.13529  Biso   1.000  C
  C84      1.0000 0.57241  0.86471  0.69881  Biso   1.000  C
  C85      1.0000 0.86471  0.69881  0.57241  Biso   1.000  C
  C86      1.0000 0.69881  0.57241  0.86471  Biso   1.000  C
  C87      1.0000 0.86471  0.57241  0.69881  Biso   1.000  C
  C88      1.0000 0.69881  0.86471  0.57241  Biso   1.000  C
  C89      1.0000 0.57241  0.69881  0.86471  Biso   1.000  C
  C90      1.0000 0.42759  0.13529  0.30119  Biso   1.000  C
  C91      1.0000 0.13529  0.30119  0.42759  Biso   1.000  C
  C92      1.0000 0.30119  0.42759  0.13529  Biso   1.000  C
  C93      1.0000 0.25153  0.25153  0.25153  Biso   1.000  C
  C94      1.0000 0.74847  0.74847  0.74847  Biso   1.000  C
  C95      1.0000 0.13410  0.30220  0.13410  Biso   1.000  C
  C96      1.0000 0.13380  0.42820  0.13380  Biso   1.000  C
  C97      1.0000 0.13410  0.13410  0.30220  Biso   1.000  C
  C98      1.0000 0.13380  0.13380  0.42820  Biso   1.000  C
  C99      1.0000 0.30220  0.13410  0.13410  Biso   1.000  C
  C100     1.0000 0.42820  0.13380  0.13380  Biso   1.000  C
  C101     1.0000 0.69780  0.86590  0.86590  Biso   1.000  C
  C102     1.0000 0.57180  0.86620  0.86620  Biso   1.000  C
  C103     1.0000 0.86590  0.86590  0.69780  Biso   1.000  C
  C104     1.0000 0.86620  0.86620  0.57180  Biso   1.000  C
  C105     1.0000 0.86590  0.69780  0.86590  Biso   1.000  C
  C106     1.0000 0.86620  0.57180  0.86620  Biso   1.000  C
  O1       1.0000 0.00000  0.00000  0.00000  Biso   1.000  O
  O2       1.0000 0.00115  0.17288  0.00000  Biso   1.000  O
  O3       1.0000 0.82770  0.17288  0.00000  Biso   1.000  O
  O4       1.0000 0.00014  0.17244  0.82727  Biso   1.000  O
  O5       1.0000 0.40453  0.58749  0.41656  Biso   1.000  O
  O6       1.0000 0.40568  0.76036  0.41656  Biso   1.000  O
  O7       1.0000 0.57798  0.58749  0.41656  Biso   1.000  O
  O8       1.0000 0.40554  0.58792  0.58929  Biso   1.000  O
  O9       1.0000 0.86191  0.81624  0.16061  Biso   1.000  O
  O10      1.0000 0.16270  0.33328  0.86277  Biso   1.000  O
  O11      1.0000 0.64296  0.03593  0.16061  Biso   1.000  O
  O12      1.0000 0.16142  0.33273  0.64326  Biso   1.000  O
  O13      1.0000 0.64320  0.33328  0.86277  Biso   1.000  O
  O14      1.0000 0.16245  0.03593  0.16061  Biso   1.000  O
  O15      1.0000 0.86234  0.33273  0.64326  Biso   1.000  O
  O16      1.0000 0.16099  0.81624  0.16061  Biso   1.000  O
  O17      1.0000 0.15944  0.03464  0.64326  Biso   1.000  O
  O18      1.0000 0.86535  0.33403  0.16061  Biso   1.000  O
  O19      1.0000 0.15926  0.81550  0.86277  Biso   1.000  O
  O20      1.0000 0.64494  0.33403  0.16061  Biso   1.000  O
  O21      1.0000 0.54033  0.42634  0.25594  Biso   1.000  O
  O22      1.0000 0.24642  0.94487  0.55379  Biso   1.000  O
  O23      1.0000 0.76075  0.42634  0.25594  Biso   1.000  O
  O24      1.0000 0.24624  0.72573  0.77330  Biso   1.000  O
  O25      1.0000 0.76248  0.42708  0.55379  Biso   1.000  O
  O26      1.0000 0.24469  0.94412  0.25594  Biso   1.000  O
  O27      1.0000 0.54334  0.42763  0.77330  Biso   1.000  O
  O28      1.0000 0.24323  0.72443  0.25594  Biso   1.000  O
  O29      1.0000 0.24426  0.42763  0.77330  Biso   1.000  O
  O30      1.0000 0.54377  0.94412  0.25594  Biso   1.000  O
  O31      1.0000 0.24299  0.42708  0.55379  Biso   1.000  O
  O32      1.0000 0.76273  0.72443  0.25594  Biso   1.000  O
  O33      1.0000 0.79895  0.84291  0.17881  Biso   1.000  O
  O34      1.0000 0.18072  0.35133  0.79978  Biso   1.000  O
  O35      1.0000 0.66936  0.97294  0.17881  Biso   1.000  O
  O36      1.0000 0.17996  0.35101  0.66986  Biso   1.000  O
  O37      1.0000 0.66967  0.35133  0.79978  Biso   1.000  O
  O38      1.0000 0.18040  0.97294  0.17881  Biso   1.000  O
  O39      1.0000 0.79937  0.35101  0.66986  Biso   1.000  O
  O40      1.0000 0.17954  0.84291  0.17881  Biso   1.000  O
  O41      1.0000 0.17744  0.97166  0.66986  Biso   1.000  O
  O42      1.0000 0.80233  0.35228  0.17881  Biso   1.000  O
  O43      1.0000 0.17734  0.84197  0.79978  Biso   1.000  O
  O44      1.0000 0.67188  0.35228  0.17881  Biso   1.000  O
  O45      1.0000 0.60335  0.40809  0.23775  Biso   1.000  O
  O46      1.0000 0.22835  0.91840  0.61678  Biso   1.000  O
  O47      1.0000 0.73381  0.40809  0.23775  Biso   1.000  O
  O48      1.0000 0.22824  0.78870  0.74669  Biso   1.000  O
  O49      1.0000 0.73601  0.40903  0.61678  Biso   1.000  O
  O50      1.0000 0.22614  0.91745  0.23775  Biso   1.000  O
  O51      1.0000 0.60632  0.40936  0.74669  Biso   1.000  O
  O52      1.0000 0.22528  0.78743  0.23775  Biso   1.000  O
  O53      1.0000 0.22572  0.40936  0.74669  Biso   1.000  O
  O54      1.0000 0.60674  0.91745  0.23775  Biso   1.000  O
  O55      1.0000 0.22496  0.40903  0.61678  Biso   1.000  O
  O56      1.0000 0.73633  0.78743  0.23775  Biso   1.000  O
  O57      1.0000 0.81885  0.99207  0.09452  Biso   1.000  O
  O58      1.0000 0.76115  0.93474  0.15195  Biso   1.000  O
  O59      1.0000 0.09564  0.26703  0.81911  Biso   1.000  O
  O60      1.0000 0.15334  0.32435  0.76168  Biso   1.000  O
  O61      1.0000 0.81908  0.26703  0.81911  Biso   1.000  O
  O62      1.0000 0.76147  0.32435  0.76168  Biso   1.000  O
  O63      1.0000 0.09541  0.99207  0.09452  Biso   1.000  O
  O64      1.0000 0.15302  0.93474  0.15195  Biso   1.000  O
  O65      1.0000 0.09381  0.99138  0.81911  Biso   1.000  O
  O66      1.0000 0.15075  0.93377  0.76168  Biso   1.000  O
  O67      1.0000 0.82068  0.26771  0.09452  Biso   1.000  O
  O68      1.0000 0.76374  0.32533  0.15195  Biso   1.000  O
  O69      1.0000 0.58500  0.49265  0.32203  Biso   1.000  O
  O70      1.0000 0.64194  0.43504  0.26461  Biso   1.000  O
  O71      1.0000 0.31187  0.76899  0.59745  Biso   1.000  O
  O72      1.0000 0.25493  0.82660  0.65487  Biso   1.000  O
  O73      1.0000 0.58660  0.49334  0.59745  Biso   1.000  O
  O74      1.0000 0.64421  0.43601  0.65487  Biso   1.000  O
  O75      1.0000 0.31027  0.76830  0.32203  Biso   1.000  O
  O76      1.0000 0.25266  0.82562  0.26461  Biso   1.000  O
  O77      1.0000 0.31004  0.49334  0.59745  Biso   1.000  O
  O78      1.0000 0.25234  0.43601  0.65487  Biso   1.000  O
  O79      1.0000 0.58683  0.76830  0.32203  Biso   1.000  O
  O80      1.0000 0.64454  0.82562  0.26461  Biso   1.000  O
  O81      1.0000 0.95725  0.12955  0.95681  Biso   1.000  O
  O82      1.0000 0.44844  0.63082  0.45974  Biso   1.000  O
  O83      1.0000 0.90181  0.95322  0.07240  Biso   1.000  O
  O84      1.0000 0.07376  0.24510  0.90211  Biso   1.000  O
  O85      1.0000 0.78035  0.07508  0.07240  Biso   1.000  O
  O86      1.0000 0.07305  0.24479  0.78034  Biso   1.000  O
  O87      1.0000 0.78049  0.24510  0.90211  Biso   1.000  O
  O88      1.0000 0.07362  0.07508  0.07240  Biso   1.000  O
  O89      1.0000 0.90205  0.24479  0.78034  Biso   1.000  O
  O90      1.0000 0.07281  0.95322  0.07240  Biso   1.000  O
  O91      1.0000 0.07192  0.07435  0.78034  Biso   1.000  O
  O92      1.0000 0.90375  0.24552  0.07240  Biso   1.000  O
  O93      1.0000 0.07182  0.95279  0.90211  Biso   1.000  O
  O94      1.0000 0.78149  0.24552  0.07240  Biso   1.000  O
  O95      1.0000 0.50193  0.51484  0.34415  Biso   1.000  O
  O96      1.0000 0.33386  0.80757  0.51445  Biso   1.000  O
  O97      1.0000 0.62420  0.51484  0.34415  Biso   1.000  O
  O98      1.0000 0.33376  0.68601  0.63621  Biso   1.000  O
  O99      1.0000 0.62519  0.51527  0.51445  Biso   1.000  O
  O100     1.0000 0.33287  0.80715  0.34415  Biso   1.000  O
  O101     1.0000 0.50363  0.51557  0.63621  Biso   1.000  O
  O102     1.0000 0.33206  0.68528  0.34415  Biso   1.000  O
  O103     1.0000 0.33263  0.51557  0.63621  Biso   1.000  O
  O104     1.0000 0.50387  0.80715  0.34415  Biso   1.000  O
  O105     1.0000 0.33192  0.51527  0.51445  Biso   1.000  O
