data_image0
_cell_length_a       18.3149
_cell_length_b       18.3149
_cell_length_c       18.3149
_cell_angle_alpha    60.3295
_cell_angle_beta     60.3295
_cell_angle_gamma    60.3295

_symmetry_space_group_name_H-M    "P 1"
_symmetry_int_tables_number       1

loop_
  _symmetry_equiv_pos_as_xyz
  'x, y, z'

loop_
  _atom_site_label
  _atom_site_occupancy
  _atom_site_fract_x
  _atom_site_fract_y
  _atom_site_fract_z
  _atom_site_thermal_displace_type
  _atom_site_B_iso_or_equiv
  _atom_site_type_symbol
  C1       1.0000 0.20609  0.20609  0.20609  Biso   1.000  C
  C2       1.0000 0.79391  0.79391  0.79391  Biso   1.000  C
  C3       1.0000 0.20677  0.37952  0.20677  Biso   1.000  C
  C4       1.0000 0.20677  0.20677  0.37952  Biso   1.000  C
  C5       1.0000 0.37952  0.20677  0.20677  Biso   1.000  C
  C6       1.0000 0.62048  0.79323  0.79323  Biso   1.000  C
  C7       1.0000 0.79323  0.79323  0.62048  Biso   1.000  C
  C8       1.0000 0.79323  0.62048  0.79323  Biso   1.000  C
  C9       1.0000 0.04260  0.34350  0.56530  Biso   1.000  C
  C10      1.0000 0.56530  0.04260  0.34350  Biso   1.000  C
  C11      1.0000 0.34350  0.56530  0.04260  Biso   1.000  C
  C12      1.0000 0.65650  0.95740  0.43470  Biso   1.000  C
  C13      1.0000 0.95740  0.43470  0.65650  Biso   1.000  C
  C14      1.0000 0.43470  0.65650  0.95740  Biso   1.000  C
  C15      1.0000 0.95740  0.65650  0.43470  Biso   1.000  C
  C16      1.0000 0.43470  0.95740  0.65650  Biso   1.000  C
  C17      1.0000 0.65650  0.43470  0.95740  Biso   1.000  C
  C18      1.0000 0.34350  0.04260  0.56530  Biso   1.000  C
  C19      1.0000 0.04260  0.56530  0.34350  Biso   1.000  C
  C20      1.0000 0.56530  0.34350  0.04260  Biso   1.000  C
  C21      1.0000 0.04880  0.55860  0.04880  Biso   1.000  C
  C22      1.0000 0.04170  0.34450  0.04170  Biso   1.000  C
  C23      1.0000 0.04880  0.04880  0.55860  Biso   1.000  C
  C24      1.0000 0.04170  0.04170  0.34450  Biso   1.000  C
  C25      1.0000 0.55860  0.04880  0.04880  Biso   1.000  C
  C26      1.0000 0.34450  0.04170  0.04170  Biso   1.000  C
  C27      1.0000 0.44140  0.95120  0.95120  Biso   1.000  C
  C28      1.0000 0.65550  0.95830  0.95830  Biso   1.000  C
  C29      1.0000 0.95120  0.95120  0.44140  Biso   1.000  C
  C30      1.0000 0.95830  0.95830  0.65550  Biso   1.000  C
  C31      1.0000 0.95120  0.44140  0.95120  Biso   1.000  C
  C32      1.0000 0.95830  0.65550  0.95830  Biso   1.000  C
  C33      1.0000 0.02770  0.40510  0.53870  Biso   1.000  C
  C34      1.0000 0.53870  0.02770  0.40510  Biso   1.000  C
  C35      1.0000 0.40510  0.53870  0.02770  Biso   1.000  C
  C36      1.0000 0.59490  0.97230  0.46130  Biso   1.000  C
  C37      1.0000 0.97230  0.46130  0.59490  Biso   1.000  C
  C38      1.0000 0.46130  0.59490  0.97230  Biso   1.000  C
  C39      1.0000 0.97230  0.59490  0.46130  Biso   1.000  C
  C40      1.0000 0.46130  0.97230  0.59490  Biso   1.000  C
  C41      1.0000 0.59490  0.46130  0.97230  Biso   1.000  C
  C42      1.0000 0.40510  0.02770  0.53870  Biso   1.000  C
  C43      1.0000 0.02770  0.53870  0.40510  Biso   1.000  C
  C44      1.0000 0.53870  0.40510  0.02770  Biso   1.000  C
  C45      1.0000 0.11130  0.39010  0.11130  Biso   1.000  C
  C46      1.0000 0.05390  0.44400  0.05390  Biso   1.000  C
  C47      1.0000 0.02940  0.53530  0.02940  Biso   1.000  C
  C48      1.0000 0.02520  0.40600  0.02520  Biso   1.000  C
  C49      1.0000 0.11130  0.11130  0.39010  Biso   1.000  C
  C50      1.0000 0.05390  0.05390  0.44400  Biso   1.000  C
  C51      1.0000 0.02940  0.02940  0.53530  Biso   1.000  C
  C52      1.0000 0.02520  0.02520  0.40600  Biso   1.000  C
  C53      1.0000 0.39010  0.11130  0.11130  Biso   1.000  C
  C54      1.0000 0.44400  0.05390  0.05390  Biso   1.000  C
  C55      1.0000 0.53530  0.02940  0.02940  Biso   1.000  C
  C56      1.0000 0.40600  0.02520  0.02520  Biso   1.000  C
  C57      1.0000 0.60990  0.88870  0.88870  Biso   1.000  C
  C58      1.0000 0.55600  0.94610  0.94610  Biso   1.000  C
  C59      1.0000 0.46470  0.97060  0.97060  Biso   1.000  C
  C60      1.0000 0.59400  0.97480  0.97480  Biso   1.000  C
  C61      1.0000 0.88870  0.88870  0.60990  Biso   1.000  C
  C62      1.0000 0.94610  0.94610  0.55600  Biso   1.000  C
  C63      1.0000 0.97060  0.97060  0.46470  Biso   1.000  C
  C64      1.0000 0.97480  0.97480  0.59400  Biso   1.000  C
  C65      1.0000 0.88870  0.60990  0.88870  Biso   1.000  C
  C66      1.0000 0.94610  0.55600  0.94610  Biso   1.000  C
  C67      1.0000 0.97060  0.46470  0.97060  Biso   1.000  C
  C68      1.0000 0.97480  0.59400  0.97480  Biso   1.000  C
  C69      1.0000 0.11170  0.38940  0.38940  Biso   1.000  C
  C70      1.0000 0.05990  0.44245  0.44245  Biso   1.000  C
  C71      1.0000 0.38940  0.11170  0.38940  Biso   1.000  C
  C72      1.0000 0.44245  0.05990  0.44245  Biso   1.000  C
  C73      1.0000 0.38940  0.38940  0.11170  Biso   1.000  C
  C74      1.0000 0.44245  0.44245  0.05990  Biso   1.000  C
  C75      1.0000 0.61060  0.88830  0.61060  Biso   1.000  C
  C76      1.0000 0.55755  0.94010  0.55755  Biso   1.000  C
  C77      1.0000 0.88830  0.61060  0.61060  Biso   1.000  C
  C78      1.0000 0.94010  0.55755  0.55755  Biso   1.000  C
  C79      1.0000 0.61060  0.61060  0.88830  Biso   1.000  C
  C80      1.0000 0.55755  0.55755  0.94010  Biso   1.000  C
  C81      1.0000 0.13529  0.42759  0.30119  Biso   1.000  C
  C82      1.0000 0.30119  0.13529  0.42759  Biso   1.000  C
  C83      1.0000 0.42759  0.30119  0.13529  Biso   1.000  C
  C84      1.0000 0.57241  0.86471  0.69881  Biso   1.000  C
  C85      1.0000 0.86471  0.69881  0.57241  Biso   1.000  C
  C86      1.0000 0.69881  0.57241  0.86471  Biso   1.000  C
  C87      1.0000 0.86471  0.57241  0.69881  Biso   1.000  C
  C88      1.0000 0.69881  0.86471  0.57241  Biso   1.000  C
  C89      1.0000 0.57241  0.69881  0.86471  Biso   1.000  C
  C90      1.0000 0.42759  0.13529  0.30119  Biso   1.000  C
  C91      1.0000 0.13529  0.30119  0.42759  Biso   1.000  C
  C92      1.0000 0.30119  0.42759  0.13529  Biso   1.000  C
  C93      1.0000 0.25153  0.25153  0.25153  Biso   1.000  C
  C94      1.0000 0.74847  0.74847  0.74847  Biso   1.000  C
  C95      1.0000 0.13410  0.30220  0.13410  Biso   1.000  C
  C96      1.0000 0.13380  0.42820  0.13380  Biso   1.000  C
  C97      1.0000 0.13410  0.13410  0.30220  Biso   1.000  C
  C98      1.0000 0.13380  0.13380  0.42820  Biso   1.000  C
  C99      1.0000 0.30220  0.13410  0.13410  Biso   1.000  C
  C100     1.0000 0.42820  0.13380  0.13380  Biso   1.000  C
  C101     1.0000 0.69780  0.86590  0.86590  Biso   1.000  C
  C102     1.0000 0.57180  0.86620  0.86620  Biso   1.000  C
  C103     1.0000 0.86590  0.86590  0.69780  Biso   1.000  C
  C104     1.0000 0.86620  0.86620  0.57180  Biso   1.000  C
  C105     1.0000 0.86590  0.69780  0.86590  Biso   1.000  C
  C106     1.0000 0.86620  0.57180  0.86620  Biso   1.000  C
  O1       1.0000 0.00000  0.00000  0.00000  Biso   1.000  O
  O2       1.0000 0.00101  0.00043  0.17283  Biso   1.000  O
  O3       1.0000 0.82746  0.00043  0.17283  Biso   1.000  O
  O4       1.0000 0.99986  0.82746  0.17283  Biso   1.000  O
  O5       1.0000 0.41936  0.41278  0.75622  Biso   1.000  O
  O6       1.0000 0.41835  0.41235  0.58338  Biso   1.000  O
  O7       1.0000 0.41950  0.58533  0.58338  Biso   1.000  O
  O8       1.0000 0.59190  0.41235  0.58338  Biso   1.000  O
  O9       1.0000 0.16719  0.16291  0.81066  Biso   1.000  O
  O10      1.0000 0.16267  0.16097  0.03461  Biso   1.000  O
  O11      1.0000 0.64148  0.86249  0.33358  Biso   1.000  O
  O12      1.0000 0.86737  0.63919  0.33358  Biso   1.000  O
  O13      1.0000 0.16584  0.63845  0.03461  Biso   1.000  O
  O14      1.0000 0.16520  0.86369  0.81066  Biso   1.000  O
  O15      1.0000 0.64347  0.16172  0.33358  Biso   1.000  O
  O16      1.0000 0.86420  0.16172  0.33358  Biso   1.000  O
  O17      1.0000 0.16242  0.86249  0.33358  Biso   1.000  O
  O18      1.0000 0.16758  0.63919  0.33358  Biso   1.000  O
  O19      1.0000 0.64173  0.16097  0.03461  Biso   1.000  O
  O20      1.0000 0.86698  0.16291  0.81066  Biso   1.000  O
  O21      1.0000 0.25217  0.24987  0.94555  Biso   1.000  O
  O22      1.0000 0.25669  0.25182  0.72161  Biso   1.000  O
  O23      1.0000 0.55198  0.77359  0.42264  Biso   1.000  O
  O24      1.0000 0.77788  0.55029  0.42264  Biso   1.000  O
  O25      1.0000 0.77763  0.25182  0.72161  Biso   1.000  O
  O26      1.0000 0.55238  0.24987  0.94555  Biso   1.000  O
  O27      1.0000 0.25177  0.77359  0.42264  Biso   1.000  O
  O28      1.0000 0.25693  0.55029  0.42264  Biso   1.000  O
  O29      1.0000 0.55515  0.25107  0.42264  Biso   1.000  O
  O30      1.0000 0.77589  0.25107  0.42264  Biso   1.000  O
  O31      1.0000 0.25351  0.77434  0.72161  Biso   1.000  O
  O32      1.0000 0.25416  0.54909  0.94555  Biso   1.000  O
  O33      1.0000 0.18561  0.18106  0.83744  Biso   1.000  O
  O34      1.0000 0.18057  0.17889  0.97169  Biso   1.000  O
  O35      1.0000 0.66806  0.79957  0.35165  Biso   1.000  O
  O36      1.0000 0.80448  0.66604  0.35165  Biso   1.000  O
  O37      1.0000 0.18380  0.66509  0.97169  Biso   1.000  O
  O38      1.0000 0.18308  0.80079  0.83744  Biso   1.000  O
  O39      1.0000 0.67058  0.17984  0.35165  Biso   1.000  O
  O40      1.0000 0.80125  0.17984  0.35165  Biso   1.000  O
  O41      1.0000 0.18026  0.79957  0.35165  Biso   1.000  O
  O42      1.0000 0.18601  0.66604  0.35165  Biso   1.000  O
  O43      1.0000 0.66837  0.17889  0.97169  Biso   1.000  O
  O44      1.0000 0.80408  0.18106  0.83744  Biso   1.000  O
  O45      1.0000 0.23375  0.23172  0.91878  Biso   1.000  O
  O46      1.0000 0.23879  0.23389  0.78452  Biso   1.000  O
  O47      1.0000 0.61488  0.74674  0.40457  Biso   1.000  O
  O48      1.0000 0.75130  0.61321  0.40457  Biso   1.000  O
  O49      1.0000 0.75099  0.23389  0.78452  Biso   1.000  O
  O50      1.0000 0.61528  0.23172  0.91878  Biso   1.000  O
  O51      1.0000 0.23335  0.74674  0.40457  Biso   1.000  O
  O52      1.0000 0.23910  0.61321  0.40457  Biso   1.000  O
  O53      1.0000 0.61810  0.23294  0.40457  Biso   1.000  O
  O54      1.0000 0.74878  0.23294  0.40457  Biso   1.000  O
  O55      1.0000 0.23556  0.74770  0.78452  Biso   1.000  O
  O56      1.0000 0.23627  0.61199  0.91878  Biso   1.000  O
  O57      1.0000 0.09544  0.09454  0.99194  Biso   1.000  O
  O58      1.0000 0.15300  0.15171  0.93467  Biso   1.000  O
  O59      1.0000 0.81870  0.81962  0.26732  Biso   1.000  O
  O60      1.0000 0.76115  0.76245  0.32459  Biso   1.000  O
  O61      1.0000 0.09361  0.81894  0.99194  Biso   1.000  O
  O62      1.0000 0.15041  0.76148  0.93467  Biso   1.000  O
  O63      1.0000 0.82053  0.09523  0.26732  Biso   1.000  O
  O64      1.0000 0.76374  0.15269  0.32459  Biso   1.000  O
  O65      1.0000 0.09522  0.81962  0.26732  Biso   1.000  O
  O66      1.0000 0.15268  0.76245  0.32459  Biso   1.000  O
  O67      1.0000 0.81893  0.09454  0.99194  Biso   1.000  O
  O68      1.0000 0.76147  0.15171  0.93467  Biso   1.000  O
  O69      1.0000 0.32391  0.31824  0.76428  Biso   1.000  O
  O70      1.0000 0.26636  0.26107  0.82155  Biso   1.000  O
  O71      1.0000 0.60066  0.59316  0.48890  Biso   1.000  O
  O72      1.0000 0.65821  0.65033  0.43163  Biso   1.000  O
  O73      1.0000 0.60043  0.31824  0.76428  Biso   1.000  O
  O74      1.0000 0.65789  0.26107  0.82155  Biso   1.000  O
  O75      1.0000 0.32414  0.59316  0.48890  Biso   1.000  O
  O76      1.0000 0.26668  0.65033  0.43163  Biso   1.000  O
  O77      1.0000 0.59883  0.31755  0.48890  Biso   1.000  O
  O78      1.0000 0.65562  0.26009  0.43163  Biso   1.000  O
  O79      1.0000 0.32574  0.59385  0.76428  Biso   1.000  O
  O80      1.0000 0.26895  0.65131  0.82155  Biso   1.000  O
  O81      1.0000 0.95707  0.95708  0.12963  Biso   1.000  O
  O82      1.0000 0.46228  0.45570  0.62659  Biso   1.000  O
  O83      1.0000 0.07283  0.07227  0.95356  Biso   1.000  O
  O84      1.0000 0.07353  0.07257  0.07462  Biso   1.000  O
  O85      1.0000 0.78059  0.90232  0.24516  Biso   1.000  O
  O86      1.0000 0.90134  0.78116  0.24516  Biso   1.000  O
  O87      1.0000 0.07159  0.78074  0.07462  Biso   1.000  O
  O88      1.0000 0.07169  0.90159  0.95356  Biso   1.000  O
  O89      1.0000 0.78172  0.07300  0.24516  Biso   1.000  O
  O90      1.0000 0.90328  0.07300  0.24516  Biso   1.000  O
  O91      1.0000 0.07339  0.90232  0.24516  Biso   1.000  O
  O92      1.0000 0.07259  0.78116  0.24516  Biso   1.000  O
  O93      1.0000 0.78073  0.07257  0.07462  Biso   1.000  O
  O94      1.0000 0.90158  0.07227  0.95356  Biso   1.000  O
  O95      1.0000 0.34653  0.34051  0.80265  Biso   1.000  O
  O96      1.0000 0.34583  0.34021  0.68159  Biso   1.000  O
  O97      1.0000 0.51801  0.63162  0.51105  Biso   1.000  O
  O98      1.0000 0.63877  0.51046  0.51105  Biso   1.000  O
  O99      1.0000 0.63863  0.34021  0.68159  Biso   1.000  O
  O100     1.0000 0.51777  0.34051  0.80265  Biso   1.000  O
  O101     1.0000 0.34677  0.63162  0.51105  Biso   1.000  O
  O102     1.0000 0.34597  0.51046  0.51105  Biso   1.000  O
  O103     1.0000 0.51608  0.33978  0.51105  Biso   1.000  O
  O104     1.0000 0.63764  0.33978  0.51105  Biso   1.000  O
  O105     1.0000 0.34776  0.63205  0.68159  Biso   1.000  O
