data_image0
_cell_length_a       18.3149
_cell_length_b       18.3149
_cell_length_c       18.3149
_cell_angle_alpha    60.3295
_cell_angle_beta     60.3295
_cell_angle_gamma    60.3295

_symmetry_space_group_name_H-M    "P 1"
_symmetry_int_tables_number       1

loop_
  _symmetry_equiv_pos_as_xyz
  'x, y, z'

loop_
  _atom_site_label
  _atom_site_occupancy
  _atom_site_fract_x
  _atom_site_fract_y
  _atom_site_fract_z
  _atom_site_thermal_displace_type
  _atom_site_B_iso_or_equiv
  _atom_site_type_symbol
  C1       1.0000 0.20609  0.20609  0.20609  Biso   1.000  C
  C2       1.0000 0.79391  0.79391  0.79391  Biso   1.000  C
  C3       1.0000 0.20677  0.37952  0.20677  Biso   1.000  C
  C4       1.0000 0.20677  0.20677  0.37952  Biso   1.000  C
  C5       1.0000 0.37952  0.20677  0.20677  Biso   1.000  C
  C6       1.0000 0.62048  0.79323  0.79323  Biso   1.000  C
  C7       1.0000 0.79323  0.79323  0.62048  Biso   1.000  C
  C8       1.0000 0.79323  0.62048  0.79323  Biso   1.000  C
  C9       1.0000 0.04260  0.34350  0.56530  Biso   1.000  C
  C10      1.0000 0.56530  0.04260  0.34350  Biso   1.000  C
  C11      1.0000 0.34350  0.56530  0.04260  Biso   1.000  C
  C12      1.0000 0.65650  0.95740  0.43470  Biso   1.000  C
  C13      1.0000 0.95740  0.43470  0.65650  Biso   1.000  C
  C14      1.0000 0.43470  0.65650  0.95740  Biso   1.000  C
  C15      1.0000 0.95740  0.65650  0.43470  Biso   1.000  C
  C16      1.0000 0.43470  0.95740  0.65650  Biso   1.000  C
  C17      1.0000 0.65650  0.43470  0.95740  Biso   1.000  C
  C18      1.0000 0.34350  0.04260  0.56530  Biso   1.000  C
  C19      1.0000 0.04260  0.56530  0.34350  Biso   1.000  C
  C20      1.0000 0.56530  0.34350  0.04260  Biso   1.000  C
  C21      1.0000 0.04880  0.55860  0.04880  Biso   1.000  C
  C22      1.0000 0.04170  0.34450  0.04170  Biso   1.000  C
  C23      1.0000 0.04880  0.04880  0.55860  Biso   1.000  C
  C24      1.0000 0.04170  0.04170  0.34450  Biso   1.000  C
  C25      1.0000 0.55860  0.04880  0.04880  Biso   1.000  C
  C26      1.0000 0.34450  0.04170  0.04170  Biso   1.000  C
  C27      1.0000 0.44140  0.95120  0.95120  Biso   1.000  C
  C28      1.0000 0.65550  0.95830  0.95830  Biso   1.000  C
  C29      1.0000 0.95120  0.95120  0.44140  Biso   1.000  C
  C30      1.0000 0.95830  0.95830  0.65550  Biso   1.000  C
  C31      1.0000 0.95120  0.44140  0.95120  Biso   1.000  C
  C32      1.0000 0.95830  0.65550  0.95830  Biso   1.000  C
  C33      1.0000 0.02770  0.40510  0.53870  Biso   1.000  C
  C34      1.0000 0.53870  0.02770  0.40510  Biso   1.000  C
  C35      1.0000 0.40510  0.53870  0.02770  Biso   1.000  C
  C36      1.0000 0.59490  0.97230  0.46130  Biso   1.000  C
  C37      1.0000 0.97230  0.46130  0.59490  Biso   1.000  C
  C38      1.0000 0.46130  0.59490  0.97230  Biso   1.000  C
  C39      1.0000 0.97230  0.59490  0.46130  Biso   1.000  C
  C40      1.0000 0.46130  0.97230  0.59490  Biso   1.000  C
  C41      1.0000 0.59490  0.46130  0.97230  Biso   1.000  C
  C42      1.0000 0.40510  0.02770  0.53870  Biso   1.000  C
  C43      1.0000 0.02770  0.53870  0.40510  Biso   1.000  C
  C44      1.0000 0.53870  0.40510  0.02770  Biso   1.000  C
  C45      1.0000 0.11130  0.39010  0.11130  Biso   1.000  C
  C46      1.0000 0.05390  0.44400  0.05390  Biso   1.000  C
  C47      1.0000 0.02940  0.53530  0.02940  Biso   1.000  C
  C48      1.0000 0.02520  0.40600  0.02520  Biso   1.000  C
  C49      1.0000 0.11130  0.11130  0.39010  Biso   1.000  C
  C50      1.0000 0.05390  0.05390  0.44400  Biso   1.000  C
  C51      1.0000 0.02940  0.02940  0.53530  Biso   1.000  C
  C52      1.0000 0.02520  0.02520  0.40600  Biso   1.000  C
  C53      1.0000 0.39010  0.11130  0.11130  Biso   1.000  C
  C54      1.0000 0.44400  0.05390  0.05390  Biso   1.000  C
  C55      1.0000 0.53530  0.02940  0.02940  Biso   1.000  C
  C56      1.0000 0.40600  0.02520  0.02520  Biso   1.000  C
  C57      1.0000 0.60990  0.88870  0.88870  Biso   1.000  C
  C58      1.0000 0.55600  0.94610  0.94610  Biso   1.000  C
  C59      1.0000 0.46470  0.97060  0.97060  Biso   1.000  C
  C60      1.0000 0.59400  0.97480  0.97480  Biso   1.000  C
  C61      1.0000 0.88870  0.88870  0.60990  Biso   1.000  C
  C62      1.0000 0.94610  0.94610  0.55600  Biso   1.000  C
  C63      1.0000 0.97060  0.97060  0.46470  Biso   1.000  C
  C64      1.0000 0.97480  0.97480  0.59400  Biso   1.000  C
  C65      1.0000 0.88870  0.60990  0.88870  Biso   1.000  C
  C66      1.0000 0.94610  0.55600  0.94610  Biso   1.000  C
  C67      1.0000 0.97060  0.46470  0.97060  Biso   1.000  C
  C68      1.0000 0.97480  0.59400  0.97480  Biso   1.000  C
  C69      1.0000 0.11170  0.38940  0.38940  Biso   1.000  C
  C70      1.0000 0.05990  0.44245  0.44245  Biso   1.000  C
  C71      1.0000 0.38940  0.11170  0.38940  Biso   1.000  C
  C72      1.0000 0.44245  0.05990  0.44245  Biso   1.000  C
  C73      1.0000 0.38940  0.38940  0.11170  Biso   1.000  C
  C74      1.0000 0.44245  0.44245  0.05990  Biso   1.000  C
  C75      1.0000 0.61060  0.88830  0.61060  Biso   1.000  C
  C76      1.0000 0.55755  0.94010  0.55755  Biso   1.000  C
  C77      1.0000 0.88830  0.61060  0.61060  Biso   1.000  C
  C78      1.0000 0.94010  0.55755  0.55755  Biso   1.000  C
  C79      1.0000 0.61060  0.61060  0.88830  Biso   1.000  C
  C80      1.0000 0.55755  0.55755  0.94010  Biso   1.000  C
  C81      1.0000 0.13529  0.42759  0.30119  Biso   1.000  C
  C82      1.0000 0.30119  0.13529  0.42759  Biso   1.000  C
  C83      1.0000 0.42759  0.30119  0.13529  Biso   1.000  C
  C84      1.0000 0.57241  0.86471  0.69881  Biso   1.000  C
  C85      1.0000 0.86471  0.69881  0.57241  Biso   1.000  C
  C86      1.0000 0.69881  0.57241  0.86471  Biso   1.000  C
  C87      1.0000 0.86471  0.57241  0.69881  Biso   1.000  C
  C88      1.0000 0.69881  0.86471  0.57241  Biso   1.000  C
  C89      1.0000 0.57241  0.69881  0.86471  Biso   1.000  C
  C90      1.0000 0.42759  0.13529  0.30119  Biso   1.000  C
  C91      1.0000 0.13529  0.30119  0.42759  Biso   1.000  C
  C92      1.0000 0.30119  0.42759  0.13529  Biso   1.000  C
  C93      1.0000 0.25153  0.25153  0.25153  Biso   1.000  C
  C94      1.0000 0.74847  0.74847  0.74847  Biso   1.000  C
  C95      1.0000 0.13410  0.30220  0.13410  Biso   1.000  C
  C96      1.0000 0.13380  0.42820  0.13380  Biso   1.000  C
  C97      1.0000 0.13410  0.13410  0.30220  Biso   1.000  C
  C98      1.0000 0.13380  0.13380  0.42820  Biso   1.000  C
  C99      1.0000 0.30220  0.13410  0.13410  Biso   1.000  C
  C100     1.0000 0.42820  0.13380  0.13380  Biso   1.000  C
  C101     1.0000 0.69780  0.86590  0.86590  Biso   1.000  C
  C102     1.0000 0.57180  0.86620  0.86620  Biso   1.000  C
  C103     1.0000 0.86590  0.86590  0.69780  Biso   1.000  C
  C104     1.0000 0.86620  0.86620  0.57180  Biso   1.000  C
  C105     1.0000 0.86590  0.69780  0.86590  Biso   1.000  C
  C106     1.0000 0.86620  0.57180  0.86620  Biso   1.000  C
  O1       1.0000 0.00000  0.00000  0.00000  Biso   1.000  O
  O2       1.0000 0.00101  0.00043  0.17280  Biso   1.000  O
  O3       1.0000 0.82749  0.00043  0.17280  Biso   1.000  O
  O4       1.0000 0.99986  0.82749  0.17280  Biso   1.000  O
  O5       1.0000 0.41836  0.41180  0.75517  Biso   1.000  O
  O6       1.0000 0.41735  0.41136  0.58237  Biso   1.000  O
  O7       1.0000 0.41850  0.58431  0.58237  Biso   1.000  O
  O8       1.0000 0.59087  0.41136  0.58237  Biso   1.000  O
  O9       1.0000 0.16768  0.16340  0.80997  Biso   1.000  O
  O10      1.0000 0.16315  0.16145  0.03230  Biso   1.000  O
  O11      1.0000 0.64080  0.86021  0.33404  Biso   1.000  O
  O12      1.0000 0.86508  0.63853  0.33404  Biso   1.000  O
  O13      1.0000 0.16632  0.63777  0.03230  Biso   1.000  O
  O14      1.0000 0.16567  0.86140  0.80997  Biso   1.000  O
  O15      1.0000 0.64281  0.16221  0.33404  Biso   1.000  O
  O16      1.0000 0.86192  0.16221  0.33404  Biso   1.000  O
  O17      1.0000 0.16290  0.86021  0.33404  Biso   1.000  O
  O18      1.0000 0.16807  0.63853  0.33404  Biso   1.000  O
  O19      1.0000 0.64105  0.16145  0.03230  Biso   1.000  O
  O20      1.0000 0.86469  0.16340  0.80997  Biso   1.000  O
  O21      1.0000 0.25068  0.24840  0.94521  Biso   1.000  O
  O22      1.0000 0.25520  0.25034  0.72288  Biso   1.000  O
  O23      1.0000 0.55328  0.77327  0.42113  Biso   1.000  O
  O24      1.0000 0.77756  0.55158  0.42113  Biso   1.000  O
  O25      1.0000 0.77731  0.25034  0.72288  Biso   1.000  O
  O26      1.0000 0.55367  0.24840  0.94521  Biso   1.000  O
  O27      1.0000 0.25028  0.77327  0.42113  Biso   1.000  O
  O28      1.0000 0.25545  0.55158  0.42113  Biso   1.000  O
  O29      1.0000 0.55644  0.24959  0.42113  Biso   1.000  O
  O30      1.0000 0.77555  0.24959  0.42113  Biso   1.000  O
  O31      1.0000 0.25204  0.77402  0.72288  Biso   1.000  O
  O32      1.0000 0.25268  0.55039  0.94521  Biso   1.000  O
  O33      1.0000 0.18547  0.18093  0.83670  Biso   1.000  O
  O34      1.0000 0.18043  0.17876  0.97067  Biso   1.000  O
  O35      1.0000 0.66734  0.79858  0.35149  Biso   1.000  O
  O36      1.0000 0.80348  0.66533  0.35149  Biso   1.000  O
  O37      1.0000 0.18366  0.66437  0.97067  Biso   1.000  O
  O38      1.0000 0.18294  0.79979  0.83670  Biso   1.000  O
  O39      1.0000 0.66987  0.17971  0.35149  Biso   1.000  O
  O40      1.0000 0.80025  0.17971  0.35149  Biso   1.000  O
  O41      1.0000 0.18012  0.79858  0.35149  Biso   1.000  O
  O42      1.0000 0.18587  0.66533  0.35149  Biso   1.000  O
  O43      1.0000 0.66765  0.17876  0.97067  Biso   1.000  O
  O44      1.0000 0.80308  0.18093  0.83670  Biso   1.000  O
  O45      1.0000 0.23289  0.23087  0.91847  Biso   1.000  O
  O46      1.0000 0.23793  0.23304  0.78450  Biso   1.000  O
  O47      1.0000 0.61488  0.74647  0.40368  Biso   1.000  O
  O48      1.0000 0.75102  0.61322  0.40368  Biso   1.000  O
  O49      1.0000 0.75071  0.23304  0.78450  Biso   1.000  O
  O50      1.0000 0.61528  0.23087  0.91847  Biso   1.000  O
  O51      1.0000 0.23248  0.74647  0.40368  Biso   1.000  O
  O52      1.0000 0.23824  0.61322  0.40368  Biso   1.000  O
  O53      1.0000 0.61811  0.23208  0.40368  Biso   1.000  O
  O54      1.0000 0.74849  0.23208  0.40368  Biso   1.000  O
  O55      1.0000 0.23470  0.74742  0.78450  Biso   1.000  O
  O56      1.0000 0.23542  0.61201  0.91847  Biso   1.000  O
  O57      1.0000 0.09534  0.09444  0.99202  Biso   1.000  O
  O58      1.0000 0.15256  0.15128  0.93509  Biso   1.000  O
  O59      1.0000 0.81882  0.81974  0.26719  Biso   1.000  O
  O60      1.0000 0.76160  0.76290  0.32412  Biso   1.000  O
  O61      1.0000 0.09351  0.81905  0.99202  Biso   1.000  O
  O62      1.0000 0.14998  0.76192  0.93509  Biso   1.000  O
  O63      1.0000 0.82065  0.09513  0.26719  Biso   1.000  O
  O64      1.0000 0.76418  0.15225  0.32412  Biso   1.000  O
  O65      1.0000 0.09512  0.81974  0.26719  Biso   1.000  O
  O66      1.0000 0.15224  0.76290  0.32412  Biso   1.000  O
  O67      1.0000 0.81904  0.09444  0.99202  Biso   1.000  O
  O68      1.0000 0.76192  0.15128  0.93509  Biso   1.000  O
  O69      1.0000 0.32301  0.31736  0.76315  Biso   1.000  O
  O70      1.0000 0.26580  0.26051  0.82009  Biso   1.000  O
  O71      1.0000 0.59954  0.59206  0.48799  Biso   1.000  O
  O72      1.0000 0.65676  0.64890  0.43105  Biso   1.000  O
  O73      1.0000 0.59931  0.31736  0.76315  Biso   1.000  O
  O74      1.0000 0.65644  0.26051  0.82009  Biso   1.000  O
  O75      1.0000 0.32324  0.59206  0.48799  Biso   1.000  O
  O76      1.0000 0.26612  0.64890  0.43105  Biso   1.000  O
  O77      1.0000 0.59771  0.31667  0.48799  Biso   1.000  O
  O78      1.0000 0.65417  0.25954  0.43105  Biso   1.000  O
  O79      1.0000 0.32484  0.59274  0.76315  Biso   1.000  O
  O80      1.0000 0.26838  0.64987  0.82009  Biso   1.000  O
  O81      1.0000 0.95708  0.95709  0.12961  Biso   1.000  O
  O82      1.0000 0.46128  0.45471  0.62557  Biso   1.000  O
  O83      1.0000 0.07245  0.07190  0.95426  Biso   1.000  O
  O84      1.0000 0.07315  0.07220  0.07464  Biso   1.000  O
  O85      1.0000 0.78132  0.90237  0.24476  Biso   1.000  O
  O86      1.0000 0.90139  0.78189  0.24476  Biso   1.000  O
  O87      1.0000 0.07122  0.78146  0.07464  Biso   1.000  O
  O88      1.0000 0.07132  0.90164  0.95426  Biso   1.000  O
  O89      1.0000 0.78245  0.07263  0.24476  Biso   1.000  O
  O90      1.0000 0.90333  0.07263  0.24476  Biso   1.000  O
  O91      1.0000 0.07301  0.90237  0.24476  Biso   1.000  O
  O92      1.0000 0.07221  0.78189  0.24476  Biso   1.000  O
  O93      1.0000 0.78146  0.07220  0.07464  Biso   1.000  O
  O94      1.0000 0.90163  0.07190  0.95426  Biso   1.000  O
  O95      1.0000 0.34590  0.33990  0.80091  Biso   1.000  O
  O96      1.0000 0.34520  0.33960  0.68053  Biso   1.000  O
  O97      1.0000 0.51696  0.62991  0.51042  Biso   1.000  O
  O98      1.0000 0.63704  0.50943  0.51042  Biso   1.000  O
  O99      1.0000 0.63690  0.33960  0.68053  Biso   1.000  O
  O100     1.0000 0.51672  0.33990  0.80091  Biso   1.000  O
  O101     1.0000 0.34614  0.62991  0.51042  Biso   1.000  O
  O102     1.0000 0.34534  0.50943  0.51042  Biso   1.000  O
  O103     1.0000 0.51503  0.33917  0.51042  Biso   1.000  O
  O104     1.0000 0.63591  0.33917  0.51042  Biso   1.000  O
  O105     1.0000 0.34713  0.63033  0.68053  Biso   1.000  O
