data_image0
_cell_length_a       18.3149
_cell_length_b       18.3149
_cell_length_c       18.3149
_cell_angle_alpha    60.3295
_cell_angle_beta     60.3295
_cell_angle_gamma    60.3295

_symmetry_space_group_name_H-M    "P 1"
_symmetry_int_tables_number       1

loop_
  _symmetry_equiv_pos_as_xyz
  'x, y, z'

loop_
  _atom_site_label
  _atom_site_occupancy
  _atom_site_fract_x
  _atom_site_fract_y
  _atom_site_fract_z
  _atom_site_thermal_displace_type
  _atom_site_B_iso_or_equiv
  _atom_site_type_symbol
  Zn1      1.0000 0.20609  0.20609  0.20609  Biso   1.000  Zn
  Zn2      1.0000 0.79391  0.79391  0.79391  Biso   1.000  Zn
  Zn3      1.0000 0.20677  0.37952  0.20677  Biso   1.000  Zn
  Zn4      1.0000 0.20677  0.20677  0.37952  Biso   1.000  Zn
  Zn5      1.0000 0.37952  0.20677  0.20677  Biso   1.000  Zn
  Zn6      1.0000 0.62048  0.79323  0.79323  Biso   1.000  Zn
  Zn7      1.0000 0.79323  0.79323  0.62048  Biso   1.000  Zn
  Zn8      1.0000 0.79323  0.62048  0.79323  Biso   1.000  Zn
  H1       1.0000 0.04260  0.34350  0.56530  Biso   1.000  H
  H2       1.0000 0.56530  0.04260  0.34350  Biso   1.000  H
  H3       1.0000 0.34350  0.56530  0.04260  Biso   1.000  H
  H4       1.0000 0.65650  0.95740  0.43470  Biso   1.000  H
  H5       1.0000 0.95740  0.43470  0.65650  Biso   1.000  H
  H6       1.0000 0.43470  0.65650  0.95740  Biso   1.000  H
  H7       1.0000 0.95740  0.65650  0.43470  Biso   1.000  H
  H8       1.0000 0.43470  0.95740  0.65650  Biso   1.000  H
  H9       1.0000 0.65650  0.43470  0.95740  Biso   1.000  H
  H10      1.0000 0.34350  0.04260  0.56530  Biso   1.000  H
  H11      1.0000 0.04260  0.56530  0.34350  Biso   1.000  H
  H12      1.0000 0.56530  0.34350  0.04260  Biso   1.000  H
  H13      1.0000 0.04880  0.55860  0.04880  Biso   1.000  H
  H14      1.0000 0.04170  0.34450  0.04170  Biso   1.000  H
  H15      1.0000 0.04880  0.04880  0.55860  Biso   1.000  H
  H16      1.0000 0.04170  0.04170  0.34450  Biso   1.000  H
  H17      1.0000 0.55860  0.04880  0.04880  Biso   1.000  H
  H18      1.0000 0.34450  0.04170  0.04170  Biso   1.000  H
  H19      1.0000 0.44140  0.95120  0.95120  Biso   1.000  H
  H20      1.0000 0.65550  0.95830  0.95830  Biso   1.000  H
  H21      1.0000 0.95120  0.95120  0.44140  Biso   1.000  H
  H22      1.0000 0.95830  0.95830  0.65550  Biso   1.000  H
  H23      1.0000 0.95120  0.44140  0.95120  Biso   1.000  H
  H24      1.0000 0.95830  0.65550  0.95830  Biso   1.000  H
  C1       1.0000 0.02770  0.40510  0.53870  Biso   1.000  C
  C2       1.0000 0.53870  0.02770  0.40510  Biso   1.000  C
  C3       1.0000 0.40510  0.53870  0.02770  Biso   1.000  C
  C4       1.0000 0.59490  0.97230  0.46130  Biso   1.000  C
  C5       1.0000 0.97230  0.46130  0.59490  Biso   1.000  C
  C6       1.0000 0.46130  0.59490  0.97230  Biso   1.000  C
  C7       1.0000 0.97230  0.59490  0.46130  Biso   1.000  C
  C8       1.0000 0.46130  0.97230  0.59490  Biso   1.000  C
  C9       1.0000 0.59490  0.46130  0.97230  Biso   1.000  C
  C10      1.0000 0.40510  0.02770  0.53870  Biso   1.000  C
  C11      1.0000 0.02770  0.53870  0.40510  Biso   1.000  C
  C12      1.0000 0.53870  0.40510  0.02770  Biso   1.000  C
  C13      1.0000 0.11130  0.39010  0.11130  Biso   1.000  C
  C14      1.0000 0.05390  0.44400  0.05390  Biso   1.000  C
  C15      1.0000 0.02940  0.53530  0.02940  Biso   1.000  C
  C16      1.0000 0.02520  0.40600  0.02520  Biso   1.000  C
  C17      1.0000 0.11130  0.11130  0.39010  Biso   1.000  C
  C18      1.0000 0.05390  0.05390  0.44400  Biso   1.000  C
  C19      1.0000 0.02940  0.02940  0.53530  Biso   1.000  C
  C20      1.0000 0.02520  0.02520  0.40600  Biso   1.000  C
  C21      1.0000 0.39010  0.11130  0.11130  Biso   1.000  C
  C22      1.0000 0.44400  0.05390  0.05390  Biso   1.000  C
  C23      1.0000 0.53530  0.02940  0.02940  Biso   1.000  C
  C24      1.0000 0.40600  0.02520  0.02520  Biso   1.000  C
  C25      1.0000 0.60990  0.88870  0.88870  Biso   1.000  C
  C26      1.0000 0.55600  0.94610  0.94610  Biso   1.000  C
  C27      1.0000 0.46470  0.97060  0.97060  Biso   1.000  C
  C28      1.0000 0.59400  0.97480  0.97480  Biso   1.000  C
  C29      1.0000 0.88870  0.88870  0.60990  Biso   1.000  C
  C30      1.0000 0.94610  0.94610  0.55600  Biso   1.000  C
  C31      1.0000 0.97060  0.97060  0.46470  Biso   1.000  C
  C32      1.0000 0.97480  0.97480  0.59400  Biso   1.000  C
  C33      1.0000 0.88870  0.60990  0.88870  Biso   1.000  C
  C34      1.0000 0.94610  0.55600  0.94610  Biso   1.000  C
  C35      1.0000 0.97060  0.46470  0.97060  Biso   1.000  C
  C36      1.0000 0.97480  0.59400  0.97480  Biso   1.000  C
  C37      1.0000 0.11170  0.38940  0.38940  Biso   1.000  C
  C38      1.0000 0.05990  0.44245  0.44245  Biso   1.000  C
  C39      1.0000 0.38940  0.11170  0.38940  Biso   1.000  C
  C40      1.0000 0.44245  0.05990  0.44245  Biso   1.000  C
  C41      1.0000 0.38940  0.38940  0.11170  Biso   1.000  C
  C42      1.0000 0.44245  0.44245  0.05990  Biso   1.000  C
  C43      1.0000 0.61060  0.88830  0.61060  Biso   1.000  C
  C44      1.0000 0.55755  0.94010  0.55755  Biso   1.000  C
  C45      1.0000 0.88830  0.61060  0.61060  Biso   1.000  C
  C46      1.0000 0.94010  0.55755  0.55755  Biso   1.000  C
  C47      1.0000 0.61060  0.61060  0.88830  Biso   1.000  C
  C48      1.0000 0.55755  0.55755  0.94010  Biso   1.000  C
  O1       1.0000 0.13529  0.42759  0.30119  Biso   1.000  O
  O2       1.0000 0.30119  0.13529  0.42759  Biso   1.000  O
  O3       1.0000 0.42759  0.30119  0.13529  Biso   1.000  O
  O4       1.0000 0.57241  0.86471  0.69881  Biso   1.000  O
  O5       1.0000 0.86471  0.69881  0.57241  Biso   1.000  O
  O6       1.0000 0.69881  0.57241  0.86471  Biso   1.000  O
  O7       1.0000 0.86471  0.57241  0.69881  Biso   1.000  O
  O8       1.0000 0.69881  0.86471  0.57241  Biso   1.000  O
  O9       1.0000 0.57241  0.69881  0.86471  Biso   1.000  O
  O10      1.0000 0.42759  0.13529  0.30119  Biso   1.000  O
  O11      1.0000 0.13529  0.30119  0.42759  Biso   1.000  O
  O12      1.0000 0.30119  0.42759  0.13529  Biso   1.000  O
  O13      1.0000 0.25153  0.25153  0.25153  Biso   1.000  O
  O14      1.0000 0.74847  0.74847  0.74847  Biso   1.000  O
  O15      1.0000 0.13410  0.30220  0.13410  Biso   1.000  O
  O16      1.0000 0.13380  0.42820  0.13380  Biso   1.000  O
  O17      1.0000 0.13410  0.13410  0.30220  Biso   1.000  O
  O18      1.0000 0.13380  0.13380  0.42820  Biso   1.000  O
  O19      1.0000 0.30220  0.13410  0.13410  Biso   1.000  O
  O20      1.0000 0.42820  0.13380  0.13380  Biso   1.000  O
  O21      1.0000 0.69780  0.86590  0.86590  Biso   1.000  O
  O22      1.0000 0.57180  0.86620  0.86620  Biso   1.000  O
  O23      1.0000 0.86590  0.86590  0.69780  Biso   1.000  O
  O24      1.0000 0.86620  0.86620  0.57180  Biso   1.000  O
  O25      1.0000 0.86590  0.69780  0.86590  Biso   1.000  O
  O26      1.0000 0.86620  0.57180  0.86620  Biso   1.000  O
  Zn9      1.0000 0.01181  0.83565  0.13319  Biso   1.000  Zn
  Zn10     1.0000 0.84078  0.00726  0.13319  Biso   1.000  Zn
  Zn11     1.0000 0.42635  0.42776  0.72665  Biso   1.000  Zn
  Zn12     1.0000 0.01295  0.00726  0.13319  Biso   1.000  Zn
  Zn13     1.0000 0.42649  0.59894  0.55518  Biso   1.000  Zn
  Zn14     1.0000 0.42535  0.42733  0.55518  Biso   1.000  Zn
  Zn15     1.0000 0.59753  0.42733  0.55518  Biso   1.000  Zn
  Zn16     1.0000 0.01196  0.00683  0.96172  Biso   1.000  Zn
  C49      1.0000 0.63056  0.75249  0.37663  Biso   1.000  C
  C50      1.0000 0.19113  0.68211  0.31175  Biso   1.000  C
  C51      1.0000 0.74980  0.24818  0.37663  Biso   1.000  C
  C52      1.0000 0.16084  0.77054  0.89725  Biso   1.000  C
  C53      1.0000 0.63015  0.24944  0.88052  Biso   1.000  C
  C54      1.0000 0.77535  0.77151  0.28339  Biso   1.000  C
  C55      1.0000 0.60478  0.60529  0.46287  Biso   1.000  C
  C56      1.0000 0.68596  0.80429  0.31175  Biso   1.000  C
  C57      1.0000 0.80774  0.68211  0.31175  Biso   1.000  C
  C58      1.0000 0.16340  0.15700  0.89725  Biso   1.000  C
  C59      1.0000 0.16308  0.77151  0.28339  Biso   1.000  C
  C60      1.0000 0.24940  0.75344  0.75843  Biso   1.000  C
  C61      1.0000 0.24637  0.63030  0.37663  Biso   1.000  C
  C62      1.0000 0.10500  0.82930  0.22550  Biso   1.000  C
  C63      1.0000 0.83375  0.09921  0.95515  Biso   1.000  C
  C64      1.0000 0.60298  0.33471  0.46287  Biso   1.000  C
  C65      1.0000 0.83532  0.09988  0.22550  Biso   1.000  C
  C66      1.0000 0.83353  0.82930  0.22550  Biso   1.000  C
  C67      1.0000 0.75234  0.63030  0.37663  Biso   1.000  C
  C68      1.0000 0.81109  0.18642  0.31175  Biso   1.000  C
  C69      1.0000 0.33330  0.60529  0.46287  Biso   1.000  C
  C70      1.0000 0.68850  0.18642  0.31175  Biso   1.000  C
  C71      1.0000 0.24930  0.63156  0.88052  Biso   1.000  C
  C72      1.0000 0.10522  0.09921  0.95515  Biso   1.000  C
  C73      1.0000 0.68628  0.18546  0.92994  Biso   1.000  C
  C74      1.0000 0.60455  0.33539  0.73323  Biso   1.000  C
  C75      1.0000 0.27522  0.66309  0.40498  Biso   1.000  C
  C76      1.0000 0.62721  0.24818  0.37663  Biso   1.000  C
  C77      1.0000 0.19154  0.18515  0.80786  Biso   1.000  C
  C78      1.0000 0.10343  0.82862  0.95515  Biso   1.000  C
  C79      1.0000 0.75203  0.24913  0.75843  Biso   1.000  C
  C80      1.0000 0.19225  0.18546  0.92994  Biso   1.000  C
  C81      1.0000 0.66264  0.27759  0.79112  Biso   1.000  C
  C82      1.0000 0.24718  0.75249  0.37663  Biso   1.000  C
  C83      1.0000 0.24605  0.24913  0.75843  Biso   1.000  C
  C84      1.0000 0.33488  0.60597  0.73323  Biso   1.000  C
  C85      1.0000 0.24676  0.24944  0.88052  Biso   1.000  C
  C86      1.0000 0.18891  0.68115  0.92994  Biso   1.000  C
  C87      1.0000 0.18901  0.80303  0.80786  Biso   1.000  C
  C88      1.0000 0.77791  0.15797  0.28339  Biso   1.000  C
  C89      1.0000 0.19194  0.80429  0.31175  Biso   1.000  C
  C90      1.0000 0.66039  0.27662  0.40498  Biso   1.000  C
  C91      1.0000 0.27747  0.66405  0.79112  Biso   1.000  C
  C92      1.0000 0.33308  0.33539  0.73323  Biso   1.000  C
  C93      1.0000 0.27490  0.27759  0.79112  Biso   1.000  C
  C94      1.0000 0.77567  0.15700  0.89725  Biso   1.000  C
  C95      1.0000 0.80816  0.18515  0.80786  Biso   1.000  C
  C96      1.0000 0.66296  0.66309  0.40498  Biso   1.000  C
  O27      1.0000 0.35436  0.64720  0.48345  Biso   1.000  O
  O28      1.0000 0.35533  0.64762  0.65025  Biso   1.000  O
  O29      1.0000 0.08394  0.78739  0.20493  Biso   1.000  O
  O30      1.0000 0.52161  0.35608  0.77505  Biso   1.000  O
  O31      1.0000 0.35412  0.35608  0.77505  Biso   1.000  O
  O32      1.0000 0.08297  0.78697  0.03812  Biso   1.000  O
  O33      1.0000 0.91669  0.07851  0.91332  Biso   1.000  O
  O34      1.0000 0.08418  0.07851  0.91332  Biso   1.000  O
  O35      1.0000 0.35353  0.52230  0.48345  Biso   1.000  O
  O36      1.0000 0.64634  0.52230  0.48345  Biso   1.000  O
  O37      1.0000 0.08477  0.91230  0.20493  Biso   1.000  O
  O38      1.0000 0.35340  0.35577  0.65025  Biso   1.000  O
  O39      1.0000 0.91839  0.07924  0.20493  Biso   1.000  O
  O40      1.0000 0.79196  0.91230  0.20493  Biso   1.000  O
  O41      1.0000 0.79307  0.07924  0.20493  Biso   1.000  O
  O42      1.0000 0.35523  0.52303  0.77505  Biso   1.000  O
  O43      1.0000 0.46893  0.47034  0.59805  Biso   1.000  O
  O44      1.0000 0.52185  0.64720  0.48345  Biso   1.000  O
  O45      1.0000 0.91645  0.78739  0.20493  Biso   1.000  O
  O46      1.0000 0.79210  0.07882  0.03812  Biso   1.000  O
  O47      1.0000 0.64523  0.35535  0.48345  Biso   1.000  O
  O48      1.0000 0.08491  0.07882  0.03812  Biso   1.000  O
  O49      1.0000 0.96938  0.96425  0.09032  Biso   1.000  O
  O50      1.0000 0.51992  0.35535  0.48345  Biso   1.000  O
  O51      1.0000 0.08307  0.91157  0.91332  Biso   1.000  O
  O52      1.0000 0.64621  0.35577  0.65025  Biso   1.000  O
  H25      1.0000 0.55499  0.78434  0.39854  Biso   1.000  H
  H26      1.0000 0.17100  0.64634  0.29206  Biso   1.000  H
  H27      1.0000 0.78198  0.27016  0.39854  Biso   1.000  H
  H28      1.0000 0.55456  0.27145  0.91229  Biso   1.000  H
  H29      1.0000 0.65443  0.87990  0.28983  Biso   1.000  H
  H30      1.0000 0.88277  0.64634  0.29206  Biso   1.000  H
  H31      1.0000 0.27118  0.78505  0.68283  Biso   1.000  H
  H32      1.0000 0.26800  0.55469  0.39854  Biso   1.000  H
  H33      1.0000 0.78387  0.55469  0.39854  Biso   1.000  H
  H34      1.0000 0.88673  0.16443  0.28983  Biso   1.000  H
  H35      1.0000 0.65632  0.16443  0.28983  Biso   1.000  H
  H36      1.0000 0.27099  0.55597  0.91229  Biso   1.000  H
  H37      1.0000 0.65467  0.16372  0.00555  Biso   1.000  H
  H38      1.0000 0.55157  0.27016  0.39854  Biso   1.000  H
  H39      1.0000 0.17143  0.16536  0.77217  Biso   1.000  H
  H40      1.0000 0.78756  0.26865  0.68336  Biso   1.000  H
  H41      1.0000 0.17279  0.16594  0.00501  Biso   1.000  H
  H42      1.0000 0.26730  0.78825  0.39632  Biso   1.000  H
  H43      1.0000 0.26776  0.27088  0.68283  Biso   1.000  H
  H44      1.0000 0.26910  0.27145  0.91229  Biso   1.000  H
  H45      1.0000 0.16933  0.64562  0.00501  Biso   1.000  H
  H46      1.0000 0.16953  0.87807  0.77217  Biso   1.000  H
  H47      1.0000 0.17255  0.87938  0.29206  Biso   1.000  H
