data_image0
_cell_length_a       18.3149
_cell_length_b       18.3149
_cell_length_c       18.3149
_cell_angle_alpha    60.3295
_cell_angle_beta     60.3295
_cell_angle_gamma    60.3295

_symmetry_space_group_name_H-M    "P 1"
_symmetry_int_tables_number       1

loop_
  _symmetry_equiv_pos_as_xyz
  'x, y, z'

loop_
  _atom_site_label
  _atom_site_occupancy
  _atom_site_fract_x
  _atom_site_fract_y
  _atom_site_fract_z
  _atom_site_thermal_displace_type
  _atom_site_B_iso_or_equiv
  _atom_site_type_symbol
  Zn1      1.0000 0.20609  0.20609  0.20609  Biso   1.000  Zn
  Zn2      1.0000 0.79391  0.79391  0.79391  Biso   1.000  Zn
  Zn3      1.0000 0.20677  0.37952  0.20677  Biso   1.000  Zn
  Zn4      1.0000 0.20677  0.20677  0.37952  Biso   1.000  Zn
  Zn5      1.0000 0.37952  0.20677  0.20677  Biso   1.000  Zn
  Zn6      1.0000 0.62048  0.79323  0.79323  Biso   1.000  Zn
  Zn7      1.0000 0.79323  0.79323  0.62048  Biso   1.000  Zn
  Zn8      1.0000 0.79323  0.62048  0.79323  Biso   1.000  Zn
  H1       1.0000 0.04260  0.34350  0.56530  Biso   1.000  H
  H2       1.0000 0.56530  0.04260  0.34350  Biso   1.000  H
  H3       1.0000 0.34350  0.56530  0.04260  Biso   1.000  H
  H4       1.0000 0.65650  0.95740  0.43470  Biso   1.000  H
  H5       1.0000 0.95740  0.43470  0.65650  Biso   1.000  H
  H6       1.0000 0.43470  0.65650  0.95740  Biso   1.000  H
  H7       1.0000 0.95740  0.65650  0.43470  Biso   1.000  H
  H8       1.0000 0.43470  0.95740  0.65650  Biso   1.000  H
  H9       1.0000 0.65650  0.43470  0.95740  Biso   1.000  H
  H10      1.0000 0.34350  0.04260  0.56530  Biso   1.000  H
  H11      1.0000 0.04260  0.56530  0.34350  Biso   1.000  H
  H12      1.0000 0.56530  0.34350  0.04260  Biso   1.000  H
  H13      1.0000 0.04880  0.55860  0.04880  Biso   1.000  H
  H14      1.0000 0.04170  0.34450  0.04170  Biso   1.000  H
  H15      1.0000 0.04880  0.04880  0.55860  Biso   1.000  H
  H16      1.0000 0.04170  0.04170  0.34450  Biso   1.000  H
  H17      1.0000 0.55860  0.04880  0.04880  Biso   1.000  H
  H18      1.0000 0.34450  0.04170  0.04170  Biso   1.000  H
  H19      1.0000 0.44140  0.95120  0.95120  Biso   1.000  H
  H20      1.0000 0.65550  0.95830  0.95830  Biso   1.000  H
  H21      1.0000 0.95120  0.95120  0.44140  Biso   1.000  H
  H22      1.0000 0.95830  0.95830  0.65550  Biso   1.000  H
  H23      1.0000 0.95120  0.44140  0.95120  Biso   1.000  H
  H24      1.0000 0.95830  0.65550  0.95830  Biso   1.000  H
  C1       1.0000 0.02770  0.40510  0.53870  Biso   1.000  C
  C2       1.0000 0.53870  0.02770  0.40510  Biso   1.000  C
  C3       1.0000 0.40510  0.53870  0.02770  Biso   1.000  C
  C4       1.0000 0.59490  0.97230  0.46130  Biso   1.000  C
  C5       1.0000 0.97230  0.46130  0.59490  Biso   1.000  C
  C6       1.0000 0.46130  0.59490  0.97230  Biso   1.000  C
  C7       1.0000 0.97230  0.59490  0.46130  Biso   1.000  C
  C8       1.0000 0.46130  0.97230  0.59490  Biso   1.000  C
  C9       1.0000 0.59490  0.46130  0.97230  Biso   1.000  C
  C10      1.0000 0.40510  0.02770  0.53870  Biso   1.000  C
  C11      1.0000 0.02770  0.53870  0.40510  Biso   1.000  C
  C12      1.0000 0.53870  0.40510  0.02770  Biso   1.000  C
  C13      1.0000 0.11130  0.39010  0.11130  Biso   1.000  C
  C14      1.0000 0.05390  0.44400  0.05390  Biso   1.000  C
  C15      1.0000 0.02940  0.53530  0.02940  Biso   1.000  C
  C16      1.0000 0.02520  0.40600  0.02520  Biso   1.000  C
  C17      1.0000 0.11130  0.11130  0.39010  Biso   1.000  C
  C18      1.0000 0.05390  0.05390  0.44400  Biso   1.000  C
  C19      1.0000 0.02940  0.02940  0.53530  Biso   1.000  C
  C20      1.0000 0.02520  0.02520  0.40600  Biso   1.000  C
  C21      1.0000 0.39010  0.11130  0.11130  Biso   1.000  C
  C22      1.0000 0.44400  0.05390  0.05390  Biso   1.000  C
  C23      1.0000 0.53530  0.02940  0.02940  Biso   1.000  C
  C24      1.0000 0.40600  0.02520  0.02520  Biso   1.000  C
  C25      1.0000 0.60990  0.88870  0.88870  Biso   1.000  C
  C26      1.0000 0.55600  0.94610  0.94610  Biso   1.000  C
  C27      1.0000 0.46470  0.97060  0.97060  Biso   1.000  C
  C28      1.0000 0.59400  0.97480  0.97480  Biso   1.000  C
  C29      1.0000 0.88870  0.88870  0.60990  Biso   1.000  C
  C30      1.0000 0.94610  0.94610  0.55600  Biso   1.000  C
  C31      1.0000 0.97060  0.97060  0.46470  Biso   1.000  C
  C32      1.0000 0.97480  0.97480  0.59400  Biso   1.000  C
  C33      1.0000 0.88870  0.60990  0.88870  Biso   1.000  C
  C34      1.0000 0.94610  0.55600  0.94610  Biso   1.000  C
  C35      1.0000 0.97060  0.46470  0.97060  Biso   1.000  C
  C36      1.0000 0.97480  0.59400  0.97480  Biso   1.000  C
  C37      1.0000 0.11170  0.38940  0.38940  Biso   1.000  C
  C38      1.0000 0.05990  0.44245  0.44245  Biso   1.000  C
  C39      1.0000 0.38940  0.11170  0.38940  Biso   1.000  C
  C40      1.0000 0.44245  0.05990  0.44245  Biso   1.000  C
  C41      1.0000 0.38940  0.38940  0.11170  Biso   1.000  C
  C42      1.0000 0.44245  0.44245  0.05990  Biso   1.000  C
  C43      1.0000 0.61060  0.88830  0.61060  Biso   1.000  C
  C44      1.0000 0.55755  0.94010  0.55755  Biso   1.000  C
  C45      1.0000 0.88830  0.61060  0.61060  Biso   1.000  C
  C46      1.0000 0.94010  0.55755  0.55755  Biso   1.000  C
  C47      1.0000 0.61060  0.61060  0.88830  Biso   1.000  C
  C48      1.0000 0.55755  0.55755  0.94010  Biso   1.000  C
  O1       1.0000 0.13529  0.42759  0.30119  Biso   1.000  O
  O2       1.0000 0.30119  0.13529  0.42759  Biso   1.000  O
  O3       1.0000 0.42759  0.30119  0.13529  Biso   1.000  O
  O4       1.0000 0.57241  0.86471  0.69881  Biso   1.000  O
  O5       1.0000 0.86471  0.69881  0.57241  Biso   1.000  O
  O6       1.0000 0.69881  0.57241  0.86471  Biso   1.000  O
  O7       1.0000 0.86471  0.57241  0.69881  Biso   1.000  O
  O8       1.0000 0.69881  0.86471  0.57241  Biso   1.000  O
  O9       1.0000 0.57241  0.69881  0.86471  Biso   1.000  O
  O10      1.0000 0.42759  0.13529  0.30119  Biso   1.000  O
  O11      1.0000 0.13529  0.30119  0.42759  Biso   1.000  O
  O12      1.0000 0.30119  0.42759  0.13529  Biso   1.000  O
  O13      1.0000 0.25153  0.25153  0.25153  Biso   1.000  O
  O14      1.0000 0.74847  0.74847  0.74847  Biso   1.000  O
  O15      1.0000 0.13410  0.30220  0.13410  Biso   1.000  O
  O16      1.0000 0.13380  0.42820  0.13380  Biso   1.000  O
  O17      1.0000 0.13410  0.13410  0.30220  Biso   1.000  O
  O18      1.0000 0.13380  0.13380  0.42820  Biso   1.000  O
  O19      1.0000 0.30220  0.13410  0.13410  Biso   1.000  O
  O20      1.0000 0.42820  0.13380  0.13380  Biso   1.000  O
  O21      1.0000 0.69780  0.86590  0.86590  Biso   1.000  O
  O22      1.0000 0.57180  0.86620  0.86620  Biso   1.000  O
  O23      1.0000 0.86590  0.86590  0.69780  Biso   1.000  O
  O24      1.0000 0.86620  0.86620  0.57180  Biso   1.000  O
  O25      1.0000 0.86590  0.69780  0.86590  Biso   1.000  O
  O26      1.0000 0.86620  0.57180  0.86620  Biso   1.000  O
  Zn9      1.0000 0.01181  0.83565  0.13319  Biso   1.000  Zn
  Zn10     1.0000 0.01297  0.01018  0.13319  Biso   1.000  Zn
  Zn11     1.0000 0.83786  0.01018  0.13319  Biso   1.000  Zn
  Zn12     1.0000 0.01196  0.00975  0.95880  Biso   1.000  Zn
  Zn13     1.0000 0.41735  0.42336  0.54832  Biso   1.000  Zn
  Zn14     1.0000 0.41851  0.59789  0.54832  Biso   1.000  Zn
  Zn15     1.0000 0.59246  0.42336  0.54832  Biso   1.000  Zn
  Zn16     1.0000 0.41837  0.42380  0.72270  Biso   1.000  Zn
  H25      1.0000 0.87889  0.65523  0.28956  Biso   1.000  H
  H26      1.0000 0.17026  0.16635  0.00111  Biso   1.000  H
  H27      1.0000 0.65649  0.87838  0.28956  Biso   1.000  H
  H28      1.0000 0.16897  0.16580  0.77815  Biso   1.000  H
  H29      1.0000 0.65673  0.16635  0.00111  Biso   1.000  H
  H30      1.0000 0.17002  0.87838  0.28956  Biso   1.000  H
  H31      1.0000 0.87932  0.16580  0.77815  Biso   1.000  H
  H32      1.0000 0.16854  0.65523  0.28956  Biso   1.000  H
  H33      1.0000 0.16705  0.87710  0.77815  Biso   1.000  H
  H34      1.0000 0.88229  0.16708  0.28956  Biso   1.000  H
  H35      1.0000 0.16686  0.65451  0.00111  Biso   1.000  H
  H36      1.0000 0.65841  0.16708  0.28956  Biso   1.000  H
  H37      1.0000 0.54803  0.26647  0.39195  Biso   1.000  H
  H38      1.0000 0.26346  0.77903  0.68040  Biso   1.000  H
  H39      1.0000 0.77192  0.26647  0.39195  Biso   1.000  H
  H40      1.0000 0.26328  0.55644  0.90336  Biso   1.000  H
  H41      1.0000 0.77360  0.26719  0.68040  Biso   1.000  H
  H42      1.0000 0.26178  0.77831  0.39195  Biso   1.000  H
  H43      1.0000 0.55101  0.26775  0.90336  Biso   1.000  H
  H44      1.0000 0.26030  0.55516  0.39195  Biso   1.000  H
  H45      1.0000 0.26136  0.26775  0.90336  Biso   1.000  H
  H46      1.0000 0.55143  0.77831  0.39195  Biso   1.000  H
  H47      1.0000 0.26006  0.26719  0.68040  Biso   1.000  H
  H48      1.0000 0.77383  0.55516  0.39195  Biso   1.000  H
  C49      1.0000 0.81002  0.67840  0.31246  Biso   1.000  C
  C50      1.0000 0.19300  0.18909  0.93223  Biso   1.000  C
  C51      1.0000 0.67935  0.80950  0.31246  Biso   1.000  C
  C52      1.0000 0.19224  0.18877  0.80124  Biso   1.000  C
  C53      1.0000 0.67967  0.18909  0.93223  Biso   1.000  C
  C54      1.0000 0.19269  0.80950  0.31246  Biso   1.000  C
  C55      1.0000 0.81044  0.18877  0.80124  Biso   1.000  C
  C56      1.0000 0.19182  0.67840  0.31246  Biso   1.000  C
  C57      1.0000 0.18971  0.80822  0.80124  Biso   1.000  C
  C58      1.0000 0.81341  0.19005  0.31246  Biso   1.000  C
  C59      1.0000 0.18960  0.67745  0.93223  Biso   1.000  C
  C60      1.0000 0.68188  0.19005  0.31246  Biso   1.000  C
  C61      1.0000 0.61691  0.24350  0.36905  Biso   1.000  C
  C62      1.0000 0.24072  0.75609  0.74928  Biso   1.000  C
  C63      1.0000 0.74844  0.24350  0.36905  Biso   1.000  C
  C64      1.0000 0.24061  0.62532  0.88027  Biso   1.000  C
  C65      1.0000 0.75066  0.24445  0.74928  Biso   1.000  C
  C66      1.0000 0.23851  0.75514  0.36905  Biso   1.000  C
  C67      1.0000 0.61989  0.24478  0.88027  Biso   1.000  C
  C68      1.0000 0.23764  0.62404  0.36905  Biso   1.000  C
  C69      1.0000 0.23808  0.24478  0.88027  Biso   1.000  C
  C70      1.0000 0.62031  0.75514  0.36905  Biso   1.000  C
  C71      1.0000 0.23732  0.24445  0.74928  Biso   1.000  C
  C72      1.0000 0.75097  0.62404  0.36905  Biso   1.000  C
  C73      1.0000 0.82711  0.82583  0.23044  Biso   1.000  C
  C74      1.0000 0.77359  0.77267  0.28369  Biso   1.000  C
  C75      1.0000 0.11020  0.10705  0.94875  Biso   1.000  C
  C76      1.0000 0.16371  0.16021  0.89550  Biso   1.000  C
  C77      1.0000 0.82734  0.10705  0.94875  Biso   1.000  C
  C78      1.0000 0.77391  0.16021  0.89550  Biso   1.000  C
  C79      1.0000 0.10996  0.82583  0.23044  Biso   1.000  C
  C80      1.0000 0.16339  0.77267  0.28369  Biso   1.000  C
  C81      1.0000 0.10832  0.82513  0.94875  Biso   1.000  C
  C82      1.0000 0.16113  0.77170  0.89550  Biso   1.000  C
  C83      1.0000 0.82898  0.10775  0.23044  Biso   1.000  C
  C84      1.0000 0.77617  0.16118  0.28369  Biso   1.000  C
  C85      1.0000 0.60134  0.32579  0.45107  Biso   1.000  C
  C86      1.0000 0.65415  0.27236  0.39782  Biso   1.000  C
  C87      1.0000 0.32200  0.60841  0.73276  Biso   1.000  C
  C88      1.0000 0.26919  0.66184  0.78601  Biso   1.000  C
  C89      1.0000 0.60298  0.32649  0.73276  Biso   1.000  C
  C90      1.0000 0.65641  0.27333  0.78601  Biso   1.000  C
  C91      1.0000 0.32036  0.60771  0.45107  Biso   1.000  C
  C92      1.0000 0.26693  0.66087  0.39782  Biso   1.000  C
  C93      1.0000 0.32013  0.32649  0.73276  Biso   1.000  C
  C94      1.0000 0.26661  0.27333  0.78601  Biso   1.000  C
  C95      1.0000 0.60321  0.60771  0.45107  Biso   1.000  C
  C96      1.0000 0.65673  0.66087  0.39782  Biso   1.000  C
  O27      1.0000 0.96865  0.96644  0.08960  Biso   1.000  O
  O28      1.0000 0.46167  0.46710  0.59191  Biso   1.000  O
  O29      1.0000 0.91328  0.79011  0.20516  Biso   1.000  O
  O30      1.0000 0.08514  0.08196  0.03495  Biso   1.000  O
  O31      1.0000 0.79175  0.91204  0.20516  Biso   1.000  O
  O32      1.0000 0.08443  0.08166  0.91312  Biso   1.000  O
  O33      1.0000 0.79189  0.08196  0.03495  Biso   1.000  O
  O34      1.0000 0.08500  0.91204  0.20516  Biso   1.000  O
  O35      1.0000 0.91352  0.08166  0.91312  Biso   1.000  O
  O36      1.0000 0.08419  0.79011  0.20516  Biso   1.000  O
  O37      1.0000 0.08330  0.91131  0.91312  Biso   1.000  O
  O38      1.0000 0.91522  0.08239  0.20516  Biso   1.000  O
  O39      1.0000 0.08320  0.78968  0.03495  Biso   1.000  O
  O40      1.0000 0.79289  0.08239  0.20516  Biso   1.000  O
  O41      1.0000 0.51510  0.35115  0.47635  Biso   1.000  O
  O42      1.0000 0.34712  0.64386  0.64656  Biso   1.000  O
  O43      1.0000 0.63744  0.35115  0.47635  Biso   1.000  O
  O44      1.0000 0.34702  0.52223  0.76839  Biso   1.000  O
  O45      1.0000 0.63843  0.35158  0.64656  Biso   1.000  O
  O46      1.0000 0.34613  0.64344  0.47635  Biso   1.000  O
  O47      1.0000 0.51680  0.35189  0.76839  Biso   1.000  O
  O48      1.0000 0.34532  0.52150  0.47635  Biso   1.000  O
  O49      1.0000 0.34589  0.35189  0.76839  Biso   1.000  O
  O50      1.0000 0.51704  0.64344  0.47635  Biso   1.000  O
  O51      1.0000 0.34518  0.35158  0.64656  Biso   1.000  O
