data_image0
_cell_length_a       18.3149
_cell_length_b       18.3149
_cell_length_c       18.3149
_cell_angle_alpha    60.3295
_cell_angle_beta     60.3295
_cell_angle_gamma    60.3295

_symmetry_space_group_name_H-M    "P 1"
_symmetry_int_tables_number       1

loop_
  _symmetry_equiv_pos_as_xyz
  'x, y, z'

loop_
  _atom_site_label
  _atom_site_occupancy
  _atom_site_fract_x
  _atom_site_fract_y
  _atom_site_fract_z
  _atom_site_thermal_displace_type
  _atom_site_B_iso_or_equiv
  _atom_site_type_symbol
  C1       1.0000 0.20609  0.20609  0.20609  Biso   1.000  C
  C2       1.0000 0.79391  0.79391  0.79391  Biso   1.000  C
  C3       1.0000 0.20677  0.37952  0.20677  Biso   1.000  C
  C4       1.0000 0.20677  0.20677  0.37952  Biso   1.000  C
  C5       1.0000 0.37952  0.20677  0.20677  Biso   1.000  C
  C6       1.0000 0.62048  0.79323  0.79323  Biso   1.000  C
  C7       1.0000 0.79323  0.79323  0.62048  Biso   1.000  C
  C8       1.0000 0.79323  0.62048  0.79323  Biso   1.000  C
  C9       1.0000 0.04260  0.34350  0.56530  Biso   1.000  C
  C10      1.0000 0.56530  0.04260  0.34350  Biso   1.000  C
  C11      1.0000 0.34350  0.56530  0.04260  Biso   1.000  C
  C12      1.0000 0.65650  0.95740  0.43470  Biso   1.000  C
  C13      1.0000 0.95740  0.43470  0.65650  Biso   1.000  C
  C14      1.0000 0.43470  0.65650  0.95740  Biso   1.000  C
  C15      1.0000 0.95740  0.65650  0.43470  Biso   1.000  C
  C16      1.0000 0.43470  0.95740  0.65650  Biso   1.000  C
  C17      1.0000 0.65650  0.43470  0.95740  Biso   1.000  C
  C18      1.0000 0.34350  0.04260  0.56530  Biso   1.000  C
  C19      1.0000 0.04260  0.56530  0.34350  Biso   1.000  C
  C20      1.0000 0.56530  0.34350  0.04260  Biso   1.000  C
  C21      1.0000 0.04880  0.55860  0.04880  Biso   1.000  C
  C22      1.0000 0.04170  0.34450  0.04170  Biso   1.000  C
  C23      1.0000 0.04880  0.04880  0.55860  Biso   1.000  C
  C24      1.0000 0.04170  0.04170  0.34450  Biso   1.000  C
  C25      1.0000 0.55860  0.04880  0.04880  Biso   1.000  C
  C26      1.0000 0.34450  0.04170  0.04170  Biso   1.000  C
  C27      1.0000 0.44140  0.95120  0.95120  Biso   1.000  C
  C28      1.0000 0.65550  0.95830  0.95830  Biso   1.000  C
  C29      1.0000 0.95120  0.95120  0.44140  Biso   1.000  C
  C30      1.0000 0.95830  0.95830  0.65550  Biso   1.000  C
  C31      1.0000 0.95120  0.44140  0.95120  Biso   1.000  C
  C32      1.0000 0.95830  0.65550  0.95830  Biso   1.000  C
  C33      1.0000 0.02770  0.40510  0.53870  Biso   1.000  C
  C34      1.0000 0.53870  0.02770  0.40510  Biso   1.000  C
  C35      1.0000 0.40510  0.53870  0.02770  Biso   1.000  C
  C36      1.0000 0.59490  0.97230  0.46130  Biso   1.000  C
  C37      1.0000 0.97230  0.46130  0.59490  Biso   1.000  C
  C38      1.0000 0.46130  0.59490  0.97230  Biso   1.000  C
  C39      1.0000 0.97230  0.59490  0.46130  Biso   1.000  C
  C40      1.0000 0.46130  0.97230  0.59490  Biso   1.000  C
  C41      1.0000 0.59490  0.46130  0.97230  Biso   1.000  C
  C42      1.0000 0.40510  0.02770  0.53870  Biso   1.000  C
  C43      1.0000 0.02770  0.53870  0.40510  Biso   1.000  C
  C44      1.0000 0.53870  0.40510  0.02770  Biso   1.000  C
  C45      1.0000 0.11130  0.39010  0.11130  Biso   1.000  C
  C46      1.0000 0.05390  0.44400  0.05390  Biso   1.000  C
  C47      1.0000 0.02940  0.53530  0.02940  Biso   1.000  C
  C48      1.0000 0.02520  0.40600  0.02520  Biso   1.000  C
  C49      1.0000 0.11130  0.11130  0.39010  Biso   1.000  C
  C50      1.0000 0.05390  0.05390  0.44400  Biso   1.000  C
  C51      1.0000 0.02940  0.02940  0.53530  Biso   1.000  C
  C52      1.0000 0.02520  0.02520  0.40600  Biso   1.000  C
  C53      1.0000 0.39010  0.11130  0.11130  Biso   1.000  C
  C54      1.0000 0.44400  0.05390  0.05390  Biso   1.000  C
  C55      1.0000 0.53530  0.02940  0.02940  Biso   1.000  C
  C56      1.0000 0.40600  0.02520  0.02520  Biso   1.000  C
  C57      1.0000 0.60990  0.88870  0.88870  Biso   1.000  C
  C58      1.0000 0.55600  0.94610  0.94610  Biso   1.000  C
  C59      1.0000 0.46470  0.97060  0.97060  Biso   1.000  C
  C60      1.0000 0.59400  0.97480  0.97480  Biso   1.000  C
  C61      1.0000 0.88870  0.88870  0.60990  Biso   1.000  C
  C62      1.0000 0.94610  0.94610  0.55600  Biso   1.000  C
  C63      1.0000 0.97060  0.97060  0.46470  Biso   1.000  C
  C64      1.0000 0.97480  0.97480  0.59400  Biso   1.000  C
  C65      1.0000 0.88870  0.60990  0.88870  Biso   1.000  C
  C66      1.0000 0.94610  0.55600  0.94610  Biso   1.000  C
  C67      1.0000 0.97060  0.46470  0.97060  Biso   1.000  C
  C68      1.0000 0.97480  0.59400  0.97480  Biso   1.000  C
  C69      1.0000 0.11170  0.38940  0.38940  Biso   1.000  C
  C70      1.0000 0.05990  0.44245  0.44245  Biso   1.000  C
  C71      1.0000 0.38940  0.11170  0.38940  Biso   1.000  C
  C72      1.0000 0.44245  0.05990  0.44245  Biso   1.000  C
  C73      1.0000 0.38940  0.38940  0.11170  Biso   1.000  C
  C74      1.0000 0.44245  0.44245  0.05990  Biso   1.000  C
  C75      1.0000 0.61060  0.88830  0.61060  Biso   1.000  C
  C76      1.0000 0.55755  0.94010  0.55755  Biso   1.000  C
  C77      1.0000 0.88830  0.61060  0.61060  Biso   1.000  C
  C78      1.0000 0.94010  0.55755  0.55755  Biso   1.000  C
  C79      1.0000 0.61060  0.61060  0.88830  Biso   1.000  C
  C80      1.0000 0.55755  0.55755  0.94010  Biso   1.000  C
  C81      1.0000 0.13529  0.42759  0.30119  Biso   1.000  C
  C82      1.0000 0.30119  0.13529  0.42759  Biso   1.000  C
  C83      1.0000 0.42759  0.30119  0.13529  Biso   1.000  C
  C84      1.0000 0.57241  0.86471  0.69881  Biso   1.000  C
  C85      1.0000 0.86471  0.69881  0.57241  Biso   1.000  C
  C86      1.0000 0.69881  0.57241  0.86471  Biso   1.000  C
  C87      1.0000 0.86471  0.57241  0.69881  Biso   1.000  C
  C88      1.0000 0.69881  0.86471  0.57241  Biso   1.000  C
  C89      1.0000 0.57241  0.69881  0.86471  Biso   1.000  C
  C90      1.0000 0.42759  0.13529  0.30119  Biso   1.000  C
  C91      1.0000 0.13529  0.30119  0.42759  Biso   1.000  C
  C92      1.0000 0.30119  0.42759  0.13529  Biso   1.000  C
  C93      1.0000 0.25153  0.25153  0.25153  Biso   1.000  C
  C94      1.0000 0.74847  0.74847  0.74847  Biso   1.000  C
  C95      1.0000 0.13410  0.30220  0.13410  Biso   1.000  C
  C96      1.0000 0.13380  0.42820  0.13380  Biso   1.000  C
  C97      1.0000 0.13410  0.13410  0.30220  Biso   1.000  C
  C98      1.0000 0.13380  0.13380  0.42820  Biso   1.000  C
  C99      1.0000 0.30220  0.13410  0.13410  Biso   1.000  C
  C100     1.0000 0.42820  0.13380  0.13380  Biso   1.000  C
  C101     1.0000 0.69780  0.86590  0.86590  Biso   1.000  C
  C102     1.0000 0.57180  0.86620  0.86620  Biso   1.000  C
  C103     1.0000 0.86590  0.86590  0.69780  Biso   1.000  C
  C104     1.0000 0.86620  0.86620  0.57180  Biso   1.000  C
  C105     1.0000 0.86590  0.69780  0.86590  Biso   1.000  C
  C106     1.0000 0.86620  0.57180  0.86620  Biso   1.000  C
  O1       1.0000 0.00000  0.00000  0.00000  Biso   1.000  O
  O2       1.0000 0.41506  0.58203  0.41702  Biso   1.000  O
  O3       1.0000 0.41391  0.40884  0.41702  Biso   1.000  O
  O4       1.0000 0.99885  0.82681  0.00000  Biso   1.000  O
  O5       1.0000 0.99874  0.99976  0.82682  Biso   1.000  O
  O6       1.0000 0.82589  0.00007  0.00021  Biso   1.000  O
  O7       1.0000 0.41517  0.40907  0.59020  Biso   1.000  O
  O8       1.0000 0.58801  0.40877  0.41681  Biso   1.000  O
  O9       1.0000 0.16789  0.63806  0.85967  Biso   1.000  O
  O10      1.0000 0.15275  0.85890  0.64737  Biso   1.000  O
  O11      1.0000 0.86980  0.64078  0.15990  Biso   1.000  O
  O12      1.0000 0.64087  0.86136  0.16516  Biso   1.000  O
  O13      1.0000 0.16617  0.86075  0.15812  Biso   1.000  O
  O14      1.0000 0.24918  0.24755  0.55735  Biso   1.000  O
  O15      1.0000 0.25913  0.24500  0.76965  Biso   1.000  O
  O16      1.0000 0.54731  0.25039  0.25711  Biso   1.000  O
  O17      1.0000 0.77105  0.24989  0.25185  Biso   1.000  O
  O18      1.0000 0.24256  0.76915  0.25890  Biso   1.000  O
  O19      1.0000 0.24601  0.77078  0.55735  Biso   1.000  O
  O20      1.0000 0.26115  0.54993  0.76965  Biso   1.000  O
  O21      1.0000 0.54410  0.76806  0.25711  Biso   1.000  O
  O22      1.0000 0.77303  0.54747  0.25185  Biso   1.000  O
  O23      1.0000 0.24774  0.54809  0.25890  Biso   1.000  O
  O24      1.0000 0.16472  0.16128  0.85967  Biso   1.000  O
  O25      1.0000 0.15478  0.16384  0.64737  Biso   1.000  O
  O26      1.0000 0.86660  0.15844  0.15990  Biso   1.000  O
  O27      1.0000 0.64285  0.15895  0.16516  Biso   1.000  O
  O28      1.0000 0.17134  0.63968  0.15812  Biso   1.000  O
  O29      1.0000 0.64496  0.15999  0.86036  Biso   1.000  O
  O30      1.0000 0.85607  0.16214  0.64350  Biso   1.000  O
  O31      1.0000 0.76894  0.24884  0.55665  Biso   1.000  O
  O32      1.0000 0.55783  0.24669  0.77352  Biso   1.000  O
  O33      1.0000 0.09250  0.81672  0.82126  Biso   1.000  O
  O34      1.0000 0.15017  0.75995  0.76131  Biso   1.000  O
  O35      1.0000 0.18654  0.66423  0.79783  Biso   1.000  O
  O36      1.0000 0.17342  0.79718  0.67278  Biso   1.000  O
  O37      1.0000 0.81767  0.81858  0.09579  Biso   1.000  O
  O38      1.0000 0.76073  0.76340  0.15226  Biso   1.000  O
  O39      1.0000 0.80819  0.66635  0.17727  Biso   1.000  O
  O40      1.0000 0.66806  0.79982  0.18065  Biso   1.000  O
  O41      1.0000 0.18212  0.79912  0.17747  Biso   1.000  O
  O42      1.0000 0.31957  0.31519  0.59576  Biso   1.000  O
  O43      1.0000 0.26113  0.25693  0.65571  Biso   1.000  O
  O44      1.0000 0.23060  0.23092  0.61918  Biso   1.000  O
  O45      1.0000 0.23795  0.22944  0.74424  Biso   1.000  O
  O46      1.0000 0.59440  0.31492  0.32123  Biso   1.000  O
  O47      1.0000 0.65061  0.25925  0.26476  Biso   1.000  O
  O48      1.0000 0.60897  0.23158  0.23974  Biso   1.000  O
  O49      1.0000 0.74333  0.23117  0.23637  Biso   1.000  O
  O50      1.0000 0.22603  0.74298  0.23955  Biso   1.000  O
  O51      1.0000 0.32141  0.59212  0.59576  Biso   1.000  O
  O52      1.0000 0.26374  0.64888  0.65571  Biso   1.000  O
  O53      1.0000 0.22737  0.74461  0.61918  Biso   1.000  O
  O54      1.0000 0.24049  0.61165  0.74424  Biso   1.000  O
  O55      1.0000 0.59623  0.59026  0.32123  Biso   1.000  O
  O56      1.0000 0.65317  0.64544  0.26476  Biso   1.000  O
  O57      1.0000 0.60572  0.74249  0.23974  Biso   1.000  O
  O58      1.0000 0.74584  0.60902  0.23637  Biso   1.000  O
  O59      1.0000 0.23179  0.60972  0.23955  Biso   1.000  O
  O60      1.0000 0.09434  0.09365  0.82126  Biso   1.000  O
  O61      1.0000 0.15277  0.15190  0.76131  Biso   1.000  O
  O62      1.0000 0.18331  0.17792  0.79783  Biso   1.000  O
  O63      1.0000 0.17596  0.17940  0.67278  Biso   1.000  O
  O64      1.0000 0.81950  0.09392  0.09579  Biso   1.000  O
  O65      1.0000 0.76330  0.14958  0.15226  Biso   1.000  O
  O66      1.0000 0.80494  0.17726  0.17727  Biso   1.000  O
  O67      1.0000 0.67057  0.17766  0.18065  Biso   1.000  O
  O68      1.0000 0.18788  0.66586  0.17747  Biso   1.000  O
  O69      1.0000 0.81966  0.09532  0.81471  Biso   1.000  O
  O70      1.0000 0.76073  0.15091  0.76210  Biso   1.000  O
  O71      1.0000 0.67123  0.17742  0.79883  Biso   1.000  O
  O72      1.0000 0.79426  0.17949  0.67079  Biso   1.000  O
  O73      1.0000 0.09331  0.82145  0.09063  Biso   1.000  O
  O74      1.0000 0.15147  0.76181  0.15216  Biso   1.000  O
  O75      1.0000 0.59425  0.31352  0.60231  Biso   1.000  O
  O76      1.0000 0.65318  0.25793  0.65491  Biso   1.000  O
  O77      1.0000 0.74268  0.23141  0.61819  Biso   1.000  O
  O78      1.0000 0.61964  0.22934  0.74622  Biso   1.000  O
  O79      1.0000 0.32060  0.58739  0.32639  Biso   1.000  O
  O80      1.0000 0.26243  0.64703  0.26486  Biso   1.000  O
  O81      1.0000 0.07079  0.90174  0.77808  Biso   1.000  O
  O82      1.0000 0.07308  0.77669  0.90334  Biso   1.000  O
  O83      1.0000 0.77733  0.90355  0.07068  Biso   1.000  O
  O84      1.0000 0.90129  0.77860  0.07346  Biso   1.000  O
  O85      1.0000 0.07282  0.90385  0.07117  Biso   1.000  O
  O86      1.0000 0.34198  0.33526  0.63893  Biso   1.000  O
  O87      1.0000 0.33887  0.33734  0.51368  Biso   1.000  O
  O88      1.0000 0.63544  0.33425  0.34634  Biso   1.000  O
  O89      1.0000 0.51067  0.33643  0.34356  Biso   1.000  O
  O90      1.0000 0.34192  0.62955  0.34584  Biso   1.000  O
  O91      1.0000 0.34312  0.50710  0.63893  Biso   1.000  O
  O92      1.0000 0.34082  0.63215  0.51368  Biso   1.000  O
  O93      1.0000 0.63658  0.50529  0.34634  Biso   1.000  O
  O94      1.0000 0.51262  0.63024  0.34356  Biso   1.000  O
  O95      1.0000 0.34109  0.50499  0.34584  Biso   1.000  O
  O96      1.0000 0.07193  0.07358  0.77808  Biso   1.000  O
  O97      1.0000 0.07504  0.07150  0.90334  Biso   1.000  O
  O98      1.0000 0.77847  0.07459  0.07068  Biso   1.000  O
  O99      1.0000 0.90324  0.07241  0.07346  Biso   1.000  O
  O100     1.0000 0.07199  0.77929  0.07117  Biso   1.000  O
  O101     1.0000 0.95590  0.95680  0.95644  Biso   1.000  O
  O102     1.0000 0.90131  0.07219  0.77908  Biso   1.000  O
  O103     1.0000 0.77875  0.07407  0.89867  Biso   1.000  O
  O104     1.0000 0.45801  0.45203  0.46058  Biso   1.000  O
  O105     1.0000 0.51259  0.33665  0.63794  Biso   1.000  O
