data_image0
_cell_length_a       18.3149
_cell_length_b       18.3149
_cell_length_c       18.3149
_cell_angle_alpha    60.3295
_cell_angle_beta     60.3295
_cell_angle_gamma    60.3295

_symmetry_space_group_name_H-M    "P 1"
_symmetry_int_tables_number       1

loop_
  _symmetry_equiv_pos_as_xyz
  'x, y, z'

loop_
  _atom_site_label
  _atom_site_occupancy
  _atom_site_fract_x
  _atom_site_fract_y
  _atom_site_fract_z
  _atom_site_thermal_displace_type
  _atom_site_B_iso_or_equiv
  _atom_site_type_symbol
  Zn1      1.0000 0.20609  0.20609  0.20609  Biso   1.000  Zn
  Zn2      1.0000 0.79391  0.79391  0.79391  Biso   1.000  Zn
  Zn3      1.0000 0.20677  0.37952  0.20677  Biso   1.000  Zn
  Zn4      1.0000 0.20677  0.20677  0.37952  Biso   1.000  Zn
  Zn5      1.0000 0.37952  0.20677  0.20677  Biso   1.000  Zn
  Zn6      1.0000 0.62048  0.79323  0.79323  Biso   1.000  Zn
  Zn7      1.0000 0.79323  0.79323  0.62048  Biso   1.000  Zn
  Zn8      1.0000 0.79323  0.62048  0.79323  Biso   1.000  Zn
  H1       1.0000 0.04260  0.34350  0.56530  Biso   1.000  H
  H2       1.0000 0.56530  0.04260  0.34350  Biso   1.000  H
  H3       1.0000 0.34350  0.56530  0.04260  Biso   1.000  H
  H4       1.0000 0.65650  0.95740  0.43470  Biso   1.000  H
  H5       1.0000 0.95740  0.43470  0.65650  Biso   1.000  H
  H6       1.0000 0.43470  0.65650  0.95740  Biso   1.000  H
  H7       1.0000 0.95740  0.65650  0.43470  Biso   1.000  H
  H8       1.0000 0.43470  0.95740  0.65650  Biso   1.000  H
  H9       1.0000 0.65650  0.43470  0.95740  Biso   1.000  H
  H10      1.0000 0.34350  0.04260  0.56530  Biso   1.000  H
  H11      1.0000 0.04260  0.56530  0.34350  Biso   1.000  H
  H12      1.0000 0.56530  0.34350  0.04260  Biso   1.000  H
  H13      1.0000 0.04880  0.55860  0.04880  Biso   1.000  H
  H14      1.0000 0.04170  0.34450  0.04170  Biso   1.000  H
  H15      1.0000 0.04880  0.04880  0.55860  Biso   1.000  H
  H16      1.0000 0.04170  0.04170  0.34450  Biso   1.000  H
  H17      1.0000 0.55860  0.04880  0.04880  Biso   1.000  H
  H18      1.0000 0.34450  0.04170  0.04170  Biso   1.000  H
  H19      1.0000 0.44140  0.95120  0.95120  Biso   1.000  H
  H20      1.0000 0.65550  0.95830  0.95830  Biso   1.000  H
  H21      1.0000 0.95120  0.95120  0.44140  Biso   1.000  H
  H22      1.0000 0.95830  0.95830  0.65550  Biso   1.000  H
  H23      1.0000 0.95120  0.44140  0.95120  Biso   1.000  H
  H24      1.0000 0.95830  0.65550  0.95830  Biso   1.000  H
  C1       1.0000 0.02770  0.40510  0.53870  Biso   1.000  C
  C2       1.0000 0.53870  0.02770  0.40510  Biso   1.000  C
  C3       1.0000 0.40510  0.53870  0.02770  Biso   1.000  C
  C4       1.0000 0.59490  0.97230  0.46130  Biso   1.000  C
  C5       1.0000 0.97230  0.46130  0.59490  Biso   1.000  C
  C6       1.0000 0.46130  0.59490  0.97230  Biso   1.000  C
  C7       1.0000 0.97230  0.59490  0.46130  Biso   1.000  C
  C8       1.0000 0.46130  0.97230  0.59490  Biso   1.000  C
  C9       1.0000 0.59490  0.46130  0.97230  Biso   1.000  C
  C10      1.0000 0.40510  0.02770  0.53870  Biso   1.000  C
  C11      1.0000 0.02770  0.53870  0.40510  Biso   1.000  C
  C12      1.0000 0.53870  0.40510  0.02770  Biso   1.000  C
  C13      1.0000 0.11130  0.39010  0.11130  Biso   1.000  C
  C14      1.0000 0.05390  0.44400  0.05390  Biso   1.000  C
  C15      1.0000 0.02940  0.53530  0.02940  Biso   1.000  C
  C16      1.0000 0.02520  0.40600  0.02520  Biso   1.000  C
  C17      1.0000 0.11130  0.11130  0.39010  Biso   1.000  C
  C18      1.0000 0.05390  0.05390  0.44400  Biso   1.000  C
  C19      1.0000 0.02940  0.02940  0.53530  Biso   1.000  C
  C20      1.0000 0.02520  0.02520  0.40600  Biso   1.000  C
  C21      1.0000 0.39010  0.11130  0.11130  Biso   1.000  C
  C22      1.0000 0.44400  0.05390  0.05390  Biso   1.000  C
  C23      1.0000 0.53530  0.02940  0.02940  Biso   1.000  C
  C24      1.0000 0.40600  0.02520  0.02520  Biso   1.000  C
  C25      1.0000 0.60990  0.88870  0.88870  Biso   1.000  C
  C26      1.0000 0.55600  0.94610  0.94610  Biso   1.000  C
  C27      1.0000 0.46470  0.97060  0.97060  Biso   1.000  C
  C28      1.0000 0.59400  0.97480  0.97480  Biso   1.000  C
  C29      1.0000 0.88870  0.88870  0.60990  Biso   1.000  C
  C30      1.0000 0.94610  0.94610  0.55600  Biso   1.000  C
  C31      1.0000 0.97060  0.97060  0.46470  Biso   1.000  C
  C32      1.0000 0.97480  0.97480  0.59400  Biso   1.000  C
  C33      1.0000 0.88870  0.60990  0.88870  Biso   1.000  C
  C34      1.0000 0.94610  0.55600  0.94610  Biso   1.000  C
  C35      1.0000 0.97060  0.46470  0.97060  Biso   1.000  C
  C36      1.0000 0.97480  0.59400  0.97480  Biso   1.000  C
  C37      1.0000 0.11170  0.38940  0.38940  Biso   1.000  C
  C38      1.0000 0.05990  0.44245  0.44245  Biso   1.000  C
  C39      1.0000 0.38940  0.11170  0.38940  Biso   1.000  C
  C40      1.0000 0.44245  0.05990  0.44245  Biso   1.000  C
  C41      1.0000 0.38940  0.38940  0.11170  Biso   1.000  C
  C42      1.0000 0.44245  0.44245  0.05990  Biso   1.000  C
  C43      1.0000 0.61060  0.88830  0.61060  Biso   1.000  C
  C44      1.0000 0.55755  0.94010  0.55755  Biso   1.000  C
  C45      1.0000 0.88830  0.61060  0.61060  Biso   1.000  C
  C46      1.0000 0.94010  0.55755  0.55755  Biso   1.000  C
  C47      1.0000 0.61060  0.61060  0.88830  Biso   1.000  C
  C48      1.0000 0.55755  0.55755  0.94010  Biso   1.000  C
  O1       1.0000 0.13529  0.42759  0.30119  Biso   1.000  O
  O2       1.0000 0.30119  0.13529  0.42759  Biso   1.000  O
  O3       1.0000 0.42759  0.30119  0.13529  Biso   1.000  O
  O4       1.0000 0.57241  0.86471  0.69881  Biso   1.000  O
  O5       1.0000 0.86471  0.69881  0.57241  Biso   1.000  O
  O6       1.0000 0.69881  0.57241  0.86471  Biso   1.000  O
  O7       1.0000 0.86471  0.57241  0.69881  Biso   1.000  O
  O8       1.0000 0.69881  0.86471  0.57241  Biso   1.000  O
  O9       1.0000 0.57241  0.69881  0.86471  Biso   1.000  O
  O10      1.0000 0.42759  0.13529  0.30119  Biso   1.000  O
  O11      1.0000 0.13529  0.30119  0.42759  Biso   1.000  O
  O12      1.0000 0.30119  0.42759  0.13529  Biso   1.000  O
  O13      1.0000 0.25153  0.25153  0.25153  Biso   1.000  O
  O14      1.0000 0.74847  0.74847  0.74847  Biso   1.000  O
  O15      1.0000 0.13410  0.30220  0.13410  Biso   1.000  O
  O16      1.0000 0.13380  0.42820  0.13380  Biso   1.000  O
  O17      1.0000 0.13410  0.13410  0.30220  Biso   1.000  O
  O18      1.0000 0.13380  0.13380  0.42820  Biso   1.000  O
  O19      1.0000 0.30220  0.13410  0.13410  Biso   1.000  O
  O20      1.0000 0.42820  0.13380  0.13380  Biso   1.000  O
  O21      1.0000 0.69780  0.86590  0.86590  Biso   1.000  O
  O22      1.0000 0.57180  0.86620  0.86620  Biso   1.000  O
  O23      1.0000 0.86590  0.86590  0.69780  Biso   1.000  O
  O24      1.0000 0.86620  0.86620  0.57180  Biso   1.000  O
  O25      1.0000 0.86590  0.69780  0.86590  Biso   1.000  O
  O26      1.0000 0.86620  0.57180  0.86620  Biso   1.000  O
  Zn9      1.0000 0.00000  0.00000  0.00000  Biso   1.000  Zn
  Zn10     1.0000 0.00101  0.00043  0.17283  Biso   1.000  Zn
  Zn11     1.0000 0.82746  0.00043  0.17283  Biso   1.000  Zn
  Zn12     1.0000 0.99986  0.82746  0.17283  Biso   1.000  Zn
  Zn13     1.0000 0.41776  0.41119  0.75461  Biso   1.000  Zn
  Zn14     1.0000 0.41676  0.41076  0.58179  Biso   1.000  Zn
  Zn15     1.0000 0.41790  0.58373  0.58179  Biso   1.000  Zn
  Zn16     1.0000 0.59030  0.41076  0.58179  Biso   1.000  Zn
  H25      1.0000 0.16714  0.16285  0.81026  Biso   1.000  H
  H26      1.0000 0.16261  0.16090  0.03193  Biso   1.000  H
  H27      1.0000 0.64108  0.85982  0.33351  Biso   1.000  H
  H28      1.0000 0.86470  0.63880  0.33351  Biso   1.000  H
  H29      1.0000 0.16578  0.63805  0.03193  Biso   1.000  H
  H30      1.0000 0.16513  0.86102  0.81026  Biso   1.000  H
  H31      1.0000 0.64308  0.16166  0.33351  Biso   1.000  H
  H32      1.0000 0.86153  0.16166  0.33351  Biso   1.000  H
  H33      1.0000 0.16236  0.85982  0.33351  Biso   1.000  H
  H34      1.0000 0.16753  0.63880  0.33351  Biso   1.000  H
  H35      1.0000 0.64133  0.16090  0.03193  Biso   1.000  H
  H36      1.0000 0.86431  0.16285  0.81026  Biso   1.000  H
  H37      1.0000 0.25062  0.24834  0.94435  Biso   1.000  H
  H38      1.0000 0.25515  0.25029  0.72268  Biso   1.000  H
  H39      1.0000 0.55306  0.77239  0.42110  Biso   1.000  H
  H40      1.0000 0.77668  0.55136  0.42110  Biso   1.000  H
  H41      1.0000 0.77643  0.25029  0.72268  Biso   1.000  H
  H42      1.0000 0.55346  0.24834  0.94435  Biso   1.000  H
  H43      1.0000 0.25023  0.77239  0.42110  Biso   1.000  H
  H44      1.0000 0.25540  0.55136  0.42110  Biso   1.000  H
  H45      1.0000 0.55623  0.24953  0.42110  Biso   1.000  H
  H46      1.0000 0.77468  0.24953  0.42110  Biso   1.000  H
  H47      1.0000 0.25199  0.77314  0.72268  Biso   1.000  H
  H48      1.0000 0.25263  0.55017  0.94435  Biso   1.000  H
  C49      1.0000 0.18502  0.18047  0.83691  Biso   1.000  C
  C50      1.0000 0.17997  0.17830  0.97021  Biso   1.000  C
  C51      1.0000 0.66753  0.79809  0.35105  Biso   1.000  C
  C52      1.0000 0.80300  0.66552  0.35105  Biso   1.000  C
  C53      1.0000 0.18320  0.66456  0.97021  Biso   1.000  C
  C54      1.0000 0.18249  0.79931  0.83691  Biso   1.000  C
  C55      1.0000 0.67006  0.17925  0.35105  Biso   1.000  C
  C56      1.0000 0.79977  0.17925  0.35105  Biso   1.000  C
  C57      1.0000 0.17966  0.79809  0.35105  Biso   1.000  C
  C58      1.0000 0.18542  0.66552  0.35105  Biso   1.000  C
  C59      1.0000 0.66785  0.17830  0.97021  Biso   1.000  C
  C60      1.0000 0.80260  0.18047  0.83691  Biso   1.000  C
  C61      1.0000 0.23274  0.23072  0.91770  Biso   1.000  C
  C62      1.0000 0.23779  0.23289  0.78440  Biso   1.000  C
  C63      1.0000 0.61476  0.74567  0.40356  Biso   1.000  C
  C64      1.0000 0.75023  0.61310  0.40356  Biso   1.000  C
  C65      1.0000 0.74992  0.23289  0.78440  Biso   1.000  C
  C66      1.0000 0.61516  0.23072  0.91770  Biso   1.000  C
  C67      1.0000 0.23234  0.74567  0.40356  Biso   1.000  C
  C68      1.0000 0.23810  0.61310  0.40356  Biso   1.000  C
  C69      1.0000 0.61799  0.23194  0.40356  Biso   1.000  C
  C70      1.0000 0.74770  0.23194  0.40356  Biso   1.000  C
  C71      1.0000 0.23456  0.74662  0.78440  Biso   1.000  C
  C72      1.0000 0.23528  0.61188  0.91770  Biso   1.000  C
  C73      1.0000 0.09498  0.09407  0.99240  Biso   1.000  C
  C74      1.0000 0.15283  0.15154  0.93484  Biso   1.000  C
  C75      1.0000 0.81918  0.82009  0.26684  Biso   1.000  C
  C76      1.0000 0.76133  0.76263  0.32440  Biso   1.000  C
  C77      1.0000 0.09316  0.81941  0.99240  Biso   1.000  C
  C78      1.0000 0.15024  0.76165  0.93484  Biso   1.000  C
  C79      1.0000 0.82101  0.09476  0.26684  Biso   1.000  C
  C80      1.0000 0.76392  0.15251  0.32440  Biso   1.000  C
  C81      1.0000 0.09475  0.82009  0.26684  Biso   1.000  C
  C82      1.0000 0.15251  0.76263  0.32440  Biso   1.000  C
  C83      1.0000 0.81941  0.09407  0.99240  Biso   1.000  C
  C84      1.0000 0.76166  0.15154  0.93484  Biso   1.000  C
  C85      1.0000 0.32278  0.31712  0.76221  Biso   1.000  C
  C86      1.0000 0.26493  0.25965  0.81977  Biso   1.000  C
  C87      1.0000 0.59858  0.59110  0.48777  Biso   1.000  C
  C88      1.0000 0.65643  0.64856  0.43021  Biso   1.000  C
  C89      1.0000 0.59835  0.31712  0.76221  Biso   1.000  C
  C90      1.0000 0.65611  0.25965  0.81977  Biso   1.000  C
  C91      1.0000 0.32301  0.59110  0.48777  Biso   1.000  C
  C92      1.0000 0.26525  0.64856  0.43021  Biso   1.000  C
  C93      1.0000 0.59676  0.31643  0.48777  Biso   1.000  C
  C94      1.0000 0.65384  0.25868  0.43021  Biso   1.000  C
  C95      1.0000 0.32460  0.59178  0.76221  Biso   1.000  C
  C96      1.0000 0.26752  0.64954  0.81977  Biso   1.000  C
  O27      1.0000 0.95708  0.95708  0.12962  Biso   1.000  O
  O28      1.0000 0.46068  0.45411  0.62499  Biso   1.000  O
  O29      1.0000 0.07232  0.07176  0.95476  Biso   1.000  O
  O30      1.0000 0.07302  0.07206  0.07444  Biso   1.000  O
  O31      1.0000 0.78180  0.90215  0.24464  Biso   1.000  O
  O32      1.0000 0.90119  0.78237  0.24464  Biso   1.000  O
  O33      1.0000 0.07109  0.78194  0.07444  Biso   1.000  O
  O34      1.0000 0.07119  0.90142  0.95476  Biso   1.000  O
  O35      1.0000 0.78294  0.07248  0.24464  Biso   1.000  O
  O36      1.0000 0.90311  0.07248  0.24464  Biso   1.000  O
  O37      1.0000 0.07288  0.90215  0.24464  Biso   1.000  O
  O38      1.0000 0.07208  0.78237  0.24464  Biso   1.000  O
  O39      1.0000 0.78194  0.07206  0.07444  Biso   1.000  O
  O40      1.0000 0.90143  0.07176  0.95476  Biso   1.000  O
  O41      1.0000 0.34544  0.33943  0.79985  Biso   1.000  O
  O42      1.0000 0.34474  0.33913  0.68017  Biso   1.000  O
  O43      1.0000 0.51658  0.62882  0.50998  Biso   1.000  O
  O44      1.0000 0.63596  0.50904  0.50998  Biso   1.000  O
  O45      1.0000 0.63582  0.33913  0.68017  Biso   1.000  O
  O46      1.0000 0.51634  0.33943  0.79985  Biso   1.000  O
  O47      1.0000 0.34568  0.62882  0.50998  Biso   1.000  O
  O48      1.0000 0.34489  0.50904  0.50998  Biso   1.000  O
  O49      1.0000 0.51465  0.33871  0.50998  Biso   1.000  O
  O50      1.0000 0.63483  0.33871  0.50998  Biso   1.000  O
  O51      1.0000 0.34667  0.62925  0.68017  Biso   1.000  O
