data_image0
_cell_length_a       18.3149
_cell_length_b       18.3149
_cell_length_c       18.3149
_cell_angle_alpha    60.3295
_cell_angle_beta     60.3295
_cell_angle_gamma    60.3295

_symmetry_space_group_name_H-M    "P 1"
_symmetry_int_tables_number       1

loop_
  _symmetry_equiv_pos_as_xyz
  'x, y, z'

loop_
  _atom_site_label
  _atom_site_occupancy
  _atom_site_fract_x
  _atom_site_fract_y
  _atom_site_fract_z
  _atom_site_thermal_displace_type
  _atom_site_B_iso_or_equiv
  _atom_site_type_symbol
  C1       1.0000 0.20609  0.20609  0.20609  Biso   1.000  C
  C2       1.0000 0.79391  0.79391  0.79391  Biso   1.000  C
  C3       1.0000 0.20677  0.37952  0.20677  Biso   1.000  C
  C4       1.0000 0.20677  0.20677  0.37952  Biso   1.000  C
  C5       1.0000 0.37952  0.20677  0.20677  Biso   1.000  C
  C6       1.0000 0.62048  0.79323  0.79323  Biso   1.000  C
  C7       1.0000 0.79323  0.79323  0.62048  Biso   1.000  C
  C8       1.0000 0.79323  0.62048  0.79323  Biso   1.000  C
  C9       1.0000 0.04260  0.34350  0.56530  Biso   1.000  C
  C10      1.0000 0.56530  0.04260  0.34350  Biso   1.000  C
  C11      1.0000 0.34350  0.56530  0.04260  Biso   1.000  C
  C12      1.0000 0.65650  0.95740  0.43470  Biso   1.000  C
  C13      1.0000 0.95740  0.43470  0.65650  Biso   1.000  C
  C14      1.0000 0.43470  0.65650  0.95740  Biso   1.000  C
  C15      1.0000 0.95740  0.65650  0.43470  Biso   1.000  C
  C16      1.0000 0.43470  0.95740  0.65650  Biso   1.000  C
  C17      1.0000 0.65650  0.43470  0.95740  Biso   1.000  C
  C18      1.0000 0.34350  0.04260  0.56530  Biso   1.000  C
  C19      1.0000 0.04260  0.56530  0.34350  Biso   1.000  C
  C20      1.0000 0.56530  0.34350  0.04260  Biso   1.000  C
  C21      1.0000 0.04880  0.55860  0.04880  Biso   1.000  C
  C22      1.0000 0.04170  0.34450  0.04170  Biso   1.000  C
  C23      1.0000 0.04880  0.04880  0.55860  Biso   1.000  C
  C24      1.0000 0.04170  0.04170  0.34450  Biso   1.000  C
  C25      1.0000 0.55860  0.04880  0.04880  Biso   1.000  C
  C26      1.0000 0.34450  0.04170  0.04170  Biso   1.000  C
  C27      1.0000 0.44140  0.95120  0.95120  Biso   1.000  C
  C28      1.0000 0.65550  0.95830  0.95830  Biso   1.000  C
  C29      1.0000 0.95120  0.95120  0.44140  Biso   1.000  C
  C30      1.0000 0.95830  0.95830  0.65550  Biso   1.000  C
  C31      1.0000 0.95120  0.44140  0.95120  Biso   1.000  C
  C32      1.0000 0.95830  0.65550  0.95830  Biso   1.000  C
  C33      1.0000 0.02770  0.40510  0.53870  Biso   1.000  C
  C34      1.0000 0.53870  0.02770  0.40510  Biso   1.000  C
  C35      1.0000 0.40510  0.53870  0.02770  Biso   1.000  C
  C36      1.0000 0.59490  0.97230  0.46130  Biso   1.000  C
  C37      1.0000 0.97230  0.46130  0.59490  Biso   1.000  C
  C38      1.0000 0.46130  0.59490  0.97230  Biso   1.000  C
  C39      1.0000 0.97230  0.59490  0.46130  Biso   1.000  C
  C40      1.0000 0.46130  0.97230  0.59490  Biso   1.000  C
  C41      1.0000 0.59490  0.46130  0.97230  Biso   1.000  C
  C42      1.0000 0.40510  0.02770  0.53870  Biso   1.000  C
  C43      1.0000 0.02770  0.53870  0.40510  Biso   1.000  C
  C44      1.0000 0.53870  0.40510  0.02770  Biso   1.000  C
  C45      1.0000 0.11130  0.39010  0.11130  Biso   1.000  C
  C46      1.0000 0.05390  0.44400  0.05390  Biso   1.000  C
  C47      1.0000 0.02940  0.53530  0.02940  Biso   1.000  C
  C48      1.0000 0.02520  0.40600  0.02520  Biso   1.000  C
  C49      1.0000 0.11130  0.11130  0.39010  Biso   1.000  C
  C50      1.0000 0.05390  0.05390  0.44400  Biso   1.000  C
  C51      1.0000 0.02940  0.02940  0.53530  Biso   1.000  C
  C52      1.0000 0.02520  0.02520  0.40600  Biso   1.000  C
  C53      1.0000 0.39010  0.11130  0.11130  Biso   1.000  C
  C54      1.0000 0.44400  0.05390  0.05390  Biso   1.000  C
  C55      1.0000 0.53530  0.02940  0.02940  Biso   1.000  C
  C56      1.0000 0.40600  0.02520  0.02520  Biso   1.000  C
  C57      1.0000 0.60990  0.88870  0.88870  Biso   1.000  C
  C58      1.0000 0.55600  0.94610  0.94610  Biso   1.000  C
  C59      1.0000 0.46470  0.97060  0.97060  Biso   1.000  C
  C60      1.0000 0.59400  0.97480  0.97480  Biso   1.000  C
  C61      1.0000 0.88870  0.88870  0.60990  Biso   1.000  C
  C62      1.0000 0.94610  0.94610  0.55600  Biso   1.000  C
  C63      1.0000 0.97060  0.97060  0.46470  Biso   1.000  C
  C64      1.0000 0.97480  0.97480  0.59400  Biso   1.000  C
  C65      1.0000 0.88870  0.60990  0.88870  Biso   1.000  C
  C66      1.0000 0.94610  0.55600  0.94610  Biso   1.000  C
  C67      1.0000 0.97060  0.46470  0.97060  Biso   1.000  C
  C68      1.0000 0.97480  0.59400  0.97480  Biso   1.000  C
  C69      1.0000 0.11170  0.38940  0.38940  Biso   1.000  C
  C70      1.0000 0.05990  0.44245  0.44245  Biso   1.000  C
  C71      1.0000 0.38940  0.11170  0.38940  Biso   1.000  C
  C72      1.0000 0.44245  0.05990  0.44245  Biso   1.000  C
  C73      1.0000 0.38940  0.38940  0.11170  Biso   1.000  C
  C74      1.0000 0.44245  0.44245  0.05990  Biso   1.000  C
  C75      1.0000 0.61060  0.88830  0.61060  Biso   1.000  C
  C76      1.0000 0.55755  0.94010  0.55755  Biso   1.000  C
  C77      1.0000 0.88830  0.61060  0.61060  Biso   1.000  C
  C78      1.0000 0.94010  0.55755  0.55755  Biso   1.000  C
  C79      1.0000 0.61060  0.61060  0.88830  Biso   1.000  C
  C80      1.0000 0.55755  0.55755  0.94010  Biso   1.000  C
  C81      1.0000 0.13529  0.42759  0.30119  Biso   1.000  C
  C82      1.0000 0.30119  0.13529  0.42759  Biso   1.000  C
  C83      1.0000 0.42759  0.30119  0.13529  Biso   1.000  C
  C84      1.0000 0.57241  0.86471  0.69881  Biso   1.000  C
  C85      1.0000 0.86471  0.69881  0.57241  Biso   1.000  C
  C86      1.0000 0.69881  0.57241  0.86471  Biso   1.000  C
  C87      1.0000 0.86471  0.57241  0.69881  Biso   1.000  C
  C88      1.0000 0.69881  0.86471  0.57241  Biso   1.000  C
  C89      1.0000 0.57241  0.69881  0.86471  Biso   1.000  C
  C90      1.0000 0.42759  0.13529  0.30119  Biso   1.000  C
  C91      1.0000 0.13529  0.30119  0.42759  Biso   1.000  C
  C92      1.0000 0.30119  0.42759  0.13529  Biso   1.000  C
  C93      1.0000 0.25153  0.25153  0.25153  Biso   1.000  C
  C94      1.0000 0.74847  0.74847  0.74847  Biso   1.000  C
  C95      1.0000 0.13410  0.30220  0.13410  Biso   1.000  C
  C96      1.0000 0.13380  0.42820  0.13380  Biso   1.000  C
  C97      1.0000 0.13410  0.13410  0.30220  Biso   1.000  C
  C98      1.0000 0.13380  0.13380  0.42820  Biso   1.000  C
  C99      1.0000 0.30220  0.13410  0.13410  Biso   1.000  C
  C100     1.0000 0.42820  0.13380  0.13380  Biso   1.000  C
  C101     1.0000 0.69780  0.86590  0.86590  Biso   1.000  C
  C102     1.0000 0.57180  0.86620  0.86620  Biso   1.000  C
  C103     1.0000 0.86590  0.86590  0.69780  Biso   1.000  C
  C104     1.0000 0.86620  0.86620  0.57180  Biso   1.000  C
  C105     1.0000 0.86590  0.69780  0.86590  Biso   1.000  C
  C106     1.0000 0.86620  0.57180  0.86620  Biso   1.000  C
  O1       1.0000 0.00000  0.00000  0.00000  Biso   1.000  O
  O2       1.0000 0.00101  0.00043  0.17288  Biso   1.000  O
  O3       1.0000 0.82741  0.00043  0.17288  Biso   1.000  O
  O4       1.0000 0.99986  0.82741  0.17288  Biso   1.000  O
  O5       1.0000 0.41956  0.41294  0.75647  Biso   1.000  O
  O6       1.0000 0.41856  0.41251  0.58359  Biso   1.000  O
  O7       1.0000 0.41970  0.58554  0.58359  Biso   1.000  O
  O8       1.0000 0.59215  0.41251  0.58359  Biso   1.000  O
  O9       1.0000 0.16707  0.16277  0.81096  Biso   1.000  O
  O10      1.0000 0.16256  0.16083  0.03500  Biso   1.000  O
  O11      1.0000 0.64176  0.86284  0.33349  Biso   1.000  O
  O12      1.0000 0.86774  0.63945  0.33349  Biso   1.000  O
  O13      1.0000 0.16573  0.63870  0.03500  Biso   1.000  O
  O14      1.0000 0.16509  0.86403  0.81096  Biso   1.000  O
  O15      1.0000 0.64374  0.16158  0.33349  Biso   1.000  O
  O16      1.0000 0.86457  0.16158  0.33349  Biso   1.000  O
  O17      1.0000 0.16231  0.86284  0.33349  Biso   1.000  O
  O18      1.0000 0.16747  0.63945  0.33349  Biso   1.000  O
  O19      1.0000 0.64200  0.16083  0.03500  Biso   1.000  O
  O20      1.0000 0.86734  0.16277  0.81096  Biso   1.000  O
  O21      1.0000 0.25249  0.25017  0.94551  Biso   1.000  O
  O22      1.0000 0.25700  0.25211  0.72147  Biso   1.000  O
  O23      1.0000 0.55182  0.77350  0.42298  Biso   1.000  O
  O24      1.0000 0.77781  0.55011  0.42298  Biso   1.000  O
  O25      1.0000 0.77756  0.25211  0.72147  Biso   1.000  O
  O26      1.0000 0.55222  0.25017  0.94551  Biso   1.000  O
  O27      1.0000 0.25209  0.77350  0.42298  Biso   1.000  O
  O28      1.0000 0.25725  0.55011  0.42298  Biso   1.000  O
  O29      1.0000 0.55500  0.25137  0.42298  Biso   1.000  O
  O30      1.0000 0.77582  0.25137  0.42298  Biso   1.000  O
  O31      1.0000 0.25383  0.77425  0.72147  Biso   1.000  O
  O32      1.0000 0.25447  0.54891  0.94551  Biso   1.000  O
  O33      1.0000 0.18554  0.18097  0.83773  Biso   1.000  O
  O34      1.0000 0.18050  0.17881  0.97200  Biso   1.000  O
  O35      1.0000 0.66832  0.79983  0.35161  Biso   1.000  O
  O36      1.0000 0.80476  0.66628  0.35161  Biso   1.000  O
  O37      1.0000 0.18373  0.66533  0.97200  Biso   1.000  O
  O38      1.0000 0.18302  0.80105  0.83773  Biso   1.000  O
  O39      1.0000 0.67084  0.17976  0.35161  Biso   1.000  O
  O40      1.0000 0.80153  0.17976  0.35161  Biso   1.000  O
  O41      1.0000 0.18019  0.79983  0.35161  Biso   1.000  O
  O42      1.0000 0.18594  0.66628  0.35161  Biso   1.000  O
  O43      1.0000 0.66863  0.17881  0.97200  Biso   1.000  O
  O44      1.0000 0.80436  0.18097  0.83773  Biso   1.000  O
  O45      1.0000 0.23402  0.23197  0.91874  Biso   1.000  O
  O46      1.0000 0.23906  0.23414  0.78447  Biso   1.000  O
  O47      1.0000 0.61480  0.74666  0.40486  Biso   1.000  O
  O48      1.0000 0.75124  0.61311  0.40486  Biso   1.000  O
  O49      1.0000 0.75093  0.23414  0.78447  Biso   1.000  O
  O50      1.0000 0.61520  0.23197  0.91874  Biso   1.000  O
  O51      1.0000 0.23362  0.74666  0.40486  Biso   1.000  O
  O52      1.0000 0.23937  0.61311  0.40486  Biso   1.000  O
  O53      1.0000 0.61803  0.23319  0.40486  Biso   1.000  O
  O54      1.0000 0.74872  0.23319  0.40486  Biso   1.000  O
  O55      1.0000 0.23583  0.74761  0.78447  Biso   1.000  O
  O56      1.0000 0.23654  0.61190  0.91874  Biso   1.000  O
  O57      1.0000 0.09537  0.09445  0.99205  Biso   1.000  O
  O58      1.0000 0.15332  0.15201  0.93439  Biso   1.000  O
  O59      1.0000 0.81878  0.81968  0.26727  Biso   1.000  O
  O60      1.0000 0.76083  0.76212  0.32493  Biso   1.000  O
  O61      1.0000 0.09354  0.81899  0.99205  Biso   1.000  O
  O62      1.0000 0.15072  0.76114  0.93439  Biso   1.000  O
  O63      1.0000 0.82061  0.09514  0.26727  Biso   1.000  O
  O64      1.0000 0.76343  0.15299  0.32493  Biso   1.000  O
  O65      1.0000 0.09514  0.81968  0.26727  Biso   1.000  O
  O66      1.0000 0.15300  0.76212  0.32493  Biso   1.000  O
  O67      1.0000 0.81901  0.09445  0.99205  Biso   1.000  O
  O68      1.0000 0.76116  0.15201  0.93439  Biso   1.000  O
  O69      1.0000 0.32419  0.31850  0.76443  Biso   1.000  O
  O70      1.0000 0.26624  0.26093  0.82209  Biso   1.000  O
  O71      1.0000 0.60078  0.59326  0.48920  Biso   1.000  O
  O72      1.0000 0.65873  0.65083  0.43154  Biso   1.000  O
  O73      1.0000 0.60055  0.31850  0.76443  Biso   1.000  O
  O74      1.0000 0.65841  0.26093  0.82209  Biso   1.000  O
  O75      1.0000 0.32442  0.59326  0.48920  Biso   1.000  O
  O76      1.0000 0.26657  0.65083  0.43154  Biso   1.000  O
  O77      1.0000 0.59895  0.31781  0.48920  Biso   1.000  O
  O78      1.0000 0.65613  0.25996  0.43154  Biso   1.000  O
  O79      1.0000 0.32602  0.59395  0.76443  Biso   1.000  O
  O80      1.0000 0.26884  0.65180  0.82209  Biso   1.000  O
  O81      1.0000 0.95708  0.95707  0.12966  Biso   1.000  O
  O82      1.0000 0.46249  0.45588  0.62682  Biso   1.000  O
  O83      1.0000 0.07276  0.07218  0.95365  Biso   1.000  O
  O84      1.0000 0.07346  0.07248  0.07475  Biso   1.000  O
  O85      1.0000 0.78064  0.90240  0.24512  Biso   1.000  O
  O86      1.0000 0.90144  0.78119  0.24512  Biso   1.000  O
  O87      1.0000 0.07152  0.78077  0.07475  Biso   1.000  O
  O88      1.0000 0.07162  0.90167  0.95365  Biso   1.000  O
  O89      1.0000 0.78177  0.07291  0.24512  Biso   1.000  O
  O90      1.0000 0.90338  0.07291  0.24512  Biso   1.000  O
  O91      1.0000 0.07332  0.90240  0.24512  Biso   1.000  O
  O92      1.0000 0.07252  0.78119  0.24512  Biso   1.000  O
  O93      1.0000 0.78078  0.07248  0.07475  Biso   1.000  O
  O94      1.0000 0.90169  0.07218  0.95365  Biso   1.000  O
  O95      1.0000 0.34681  0.34076  0.80283  Biso   1.000  O
  O96      1.0000 0.34610  0.34046  0.68172  Biso   1.000  O
  O97      1.0000 0.51812  0.63175  0.51136  Biso   1.000  O
  O98      1.0000 0.63892  0.51054  0.51136  Biso   1.000  O
  O99      1.0000 0.63878  0.34046  0.68172  Biso   1.000  O
  O100     1.0000 0.51788  0.34076  0.80283  Biso   1.000  O
  O101     1.0000 0.34705  0.63175  0.51136  Biso   1.000  O
  O102     1.0000 0.34624  0.51054  0.51136  Biso   1.000  O
  O103     1.0000 0.51618  0.34003  0.51136  Biso   1.000  O
  O104     1.0000 0.63779  0.34003  0.51136  Biso   1.000  O
  O105     1.0000 0.34804  0.63218  0.68172  Biso   1.000  O
