data_image0
_cell_length_a       18.3149
_cell_length_b       18.3149
_cell_length_c       18.3149
_cell_angle_alpha    60.3295
_cell_angle_beta     60.3295
_cell_angle_gamma    60.3295

_symmetry_space_group_name_H-M    "P 1"
_symmetry_int_tables_number       1

loop_
  _symmetry_equiv_pos_as_xyz
  'x, y, z'

loop_
  _atom_site_label
  _atom_site_occupancy
  _atom_site_fract_x
  _atom_site_fract_y
  _atom_site_fract_z
  _atom_site_thermal_displace_type
  _atom_site_B_iso_or_equiv
  _atom_site_type_symbol
  C1       1.0000 0.20609  0.20609  0.20609  Biso   1.000  C
  C2       1.0000 0.79391  0.79391  0.79391  Biso   1.000  C
  C3       1.0000 0.20677  0.37952  0.20677  Biso   1.000  C
  C4       1.0000 0.20677  0.20677  0.37952  Biso   1.000  C
  C5       1.0000 0.37952  0.20677  0.20677  Biso   1.000  C
  C6       1.0000 0.62048  0.79323  0.79323  Biso   1.000  C
  C7       1.0000 0.79323  0.79323  0.62048  Biso   1.000  C
  C8       1.0000 0.79323  0.62048  0.79323  Biso   1.000  C
  C9       1.0000 0.04260  0.34350  0.56530  Biso   1.000  C
  C10      1.0000 0.56530  0.04260  0.34350  Biso   1.000  C
  C11      1.0000 0.34350  0.56530  0.04260  Biso   1.000  C
  C12      1.0000 0.65650  0.95740  0.43470  Biso   1.000  C
  C13      1.0000 0.95740  0.43470  0.65650  Biso   1.000  C
  C14      1.0000 0.43470  0.65650  0.95740  Biso   1.000  C
  C15      1.0000 0.95740  0.65650  0.43470  Biso   1.000  C
  C16      1.0000 0.43470  0.95740  0.65650  Biso   1.000  C
  C17      1.0000 0.65650  0.43470  0.95740  Biso   1.000  C
  C18      1.0000 0.34350  0.04260  0.56530  Biso   1.000  C
  C19      1.0000 0.04260  0.56530  0.34350  Biso   1.000  C
  C20      1.0000 0.56530  0.34350  0.04260  Biso   1.000  C
  C21      1.0000 0.04880  0.55860  0.04880  Biso   1.000  C
  C22      1.0000 0.04170  0.34450  0.04170  Biso   1.000  C
  C23      1.0000 0.04880  0.04880  0.55860  Biso   1.000  C
  C24      1.0000 0.04170  0.04170  0.34450  Biso   1.000  C
  C25      1.0000 0.55860  0.04880  0.04880  Biso   1.000  C
  C26      1.0000 0.34450  0.04170  0.04170  Biso   1.000  C
  C27      1.0000 0.44140  0.95120  0.95120  Biso   1.000  C
  C28      1.0000 0.65550  0.95830  0.95830  Biso   1.000  C
  C29      1.0000 0.95120  0.95120  0.44140  Biso   1.000  C
  C30      1.0000 0.95830  0.95830  0.65550  Biso   1.000  C
  C31      1.0000 0.95120  0.44140  0.95120  Biso   1.000  C
  C32      1.0000 0.95830  0.65550  0.95830  Biso   1.000  C
  C33      1.0000 0.02770  0.40510  0.53870  Biso   1.000  C
  C34      1.0000 0.53870  0.02770  0.40510  Biso   1.000  C
  C35      1.0000 0.40510  0.53870  0.02770  Biso   1.000  C
  C36      1.0000 0.59490  0.97230  0.46130  Biso   1.000  C
  C37      1.0000 0.97230  0.46130  0.59490  Biso   1.000  C
  C38      1.0000 0.46130  0.59490  0.97230  Biso   1.000  C
  C39      1.0000 0.97230  0.59490  0.46130  Biso   1.000  C
  C40      1.0000 0.46130  0.97230  0.59490  Biso   1.000  C
  C41      1.0000 0.59490  0.46130  0.97230  Biso   1.000  C
  C42      1.0000 0.40510  0.02770  0.53870  Biso   1.000  C
  C43      1.0000 0.02770  0.53870  0.40510  Biso   1.000  C
  C44      1.0000 0.53870  0.40510  0.02770  Biso   1.000  C
  C45      1.0000 0.11130  0.39010  0.11130  Biso   1.000  C
  C46      1.0000 0.05390  0.44400  0.05390  Biso   1.000  C
  C47      1.0000 0.02940  0.53530  0.02940  Biso   1.000  C
  C48      1.0000 0.02520  0.40600  0.02520  Biso   1.000  C
  C49      1.0000 0.11130  0.11130  0.39010  Biso   1.000  C
  C50      1.0000 0.05390  0.05390  0.44400  Biso   1.000  C
  C51      1.0000 0.02940  0.02940  0.53530  Biso   1.000  C
  C52      1.0000 0.02520  0.02520  0.40600  Biso   1.000  C
  C53      1.0000 0.39010  0.11130  0.11130  Biso   1.000  C
  C54      1.0000 0.44400  0.05390  0.05390  Biso   1.000  C
  C55      1.0000 0.53530  0.02940  0.02940  Biso   1.000  C
  C56      1.0000 0.40600  0.02520  0.02520  Biso   1.000  C
  C57      1.0000 0.60990  0.88870  0.88870  Biso   1.000  C
  C58      1.0000 0.55600  0.94610  0.94610  Biso   1.000  C
  C59      1.0000 0.46470  0.97060  0.97060  Biso   1.000  C
  C60      1.0000 0.59400  0.97480  0.97480  Biso   1.000  C
  C61      1.0000 0.88870  0.88870  0.60990  Biso   1.000  C
  C62      1.0000 0.94610  0.94610  0.55600  Biso   1.000  C
  C63      1.0000 0.97060  0.97060  0.46470  Biso   1.000  C
  C64      1.0000 0.97480  0.97480  0.59400  Biso   1.000  C
  C65      1.0000 0.88870  0.60990  0.88870  Biso   1.000  C
  C66      1.0000 0.94610  0.55600  0.94610  Biso   1.000  C
  C67      1.0000 0.97060  0.46470  0.97060  Biso   1.000  C
  C68      1.0000 0.97480  0.59400  0.97480  Biso   1.000  C
  C69      1.0000 0.11170  0.38940  0.38940  Biso   1.000  C
  C70      1.0000 0.05990  0.44245  0.44245  Biso   1.000  C
  C71      1.0000 0.38940  0.11170  0.38940  Biso   1.000  C
  C72      1.0000 0.44245  0.05990  0.44245  Biso   1.000  C
  C73      1.0000 0.38940  0.38940  0.11170  Biso   1.000  C
  C74      1.0000 0.44245  0.44245  0.05990  Biso   1.000  C
  C75      1.0000 0.61060  0.88830  0.61060  Biso   1.000  C
  C76      1.0000 0.55755  0.94010  0.55755  Biso   1.000  C
  C77      1.0000 0.88830  0.61060  0.61060  Biso   1.000  C
  C78      1.0000 0.94010  0.55755  0.55755  Biso   1.000  C
  C79      1.0000 0.61060  0.61060  0.88830  Biso   1.000  C
  C80      1.0000 0.55755  0.55755  0.94010  Biso   1.000  C
  C81      1.0000 0.13529  0.42759  0.30119  Biso   1.000  C
  C82      1.0000 0.30119  0.13529  0.42759  Biso   1.000  C
  C83      1.0000 0.42759  0.30119  0.13529  Biso   1.000  C
  C84      1.0000 0.57241  0.86471  0.69881  Biso   1.000  C
  C85      1.0000 0.86471  0.69881  0.57241  Biso   1.000  C
  C86      1.0000 0.69881  0.57241  0.86471  Biso   1.000  C
  C87      1.0000 0.86471  0.57241  0.69881  Biso   1.000  C
  C88      1.0000 0.69881  0.86471  0.57241  Biso   1.000  C
  C89      1.0000 0.57241  0.69881  0.86471  Biso   1.000  C
  C90      1.0000 0.42759  0.13529  0.30119  Biso   1.000  C
  C91      1.0000 0.13529  0.30119  0.42759  Biso   1.000  C
  C92      1.0000 0.30119  0.42759  0.13529  Biso   1.000  C
  C93      1.0000 0.25153  0.25153  0.25153  Biso   1.000  C
  C94      1.0000 0.74847  0.74847  0.74847  Biso   1.000  C
  C95      1.0000 0.13410  0.30220  0.13410  Biso   1.000  C
  C96      1.0000 0.13380  0.42820  0.13380  Biso   1.000  C
  C97      1.0000 0.13410  0.13410  0.30220  Biso   1.000  C
  C98      1.0000 0.13380  0.13380  0.42820  Biso   1.000  C
  C99      1.0000 0.30220  0.13410  0.13410  Biso   1.000  C
  C100     1.0000 0.42820  0.13380  0.13380  Biso   1.000  C
  C101     1.0000 0.69780  0.86590  0.86590  Biso   1.000  C
  C102     1.0000 0.57180  0.86620  0.86620  Biso   1.000  C
  C103     1.0000 0.86590  0.86590  0.69780  Biso   1.000  C
  C104     1.0000 0.86620  0.86620  0.57180  Biso   1.000  C
  C105     1.0000 0.86590  0.69780  0.86590  Biso   1.000  C
  C106     1.0000 0.86620  0.57180  0.86620  Biso   1.000  C
  O1       1.0000 0.18323  0.97013  0.86575  Biso   1.000  O
  O2       1.0000 0.01179  0.14214  0.86575  Biso   1.000  O
  O3       1.0000 0.01165  0.97056  0.03761  Biso   1.000  O
  O4       1.0000 0.01065  0.97013  0.86575  Biso   1.000  O
  O5       1.0000 0.59561  0.37658  0.44228  Biso   1.000  O
  O6       1.0000 0.42417  0.54859  0.44228  Biso   1.000  O
  O7       1.0000 0.59575  0.54816  0.27041  Biso   1.000  O
  O8       1.0000 0.59675  0.54859  0.44228  Biso   1.000  O
  O9       1.0000 0.33159  0.17728  0.68834  Biso   1.000  O
  O10      1.0000 0.22001  0.28923  0.68834  Biso   1.000  O
  O11      1.0000 0.83318  0.79337  0.18502  Biso   1.000  O
  O12      1.0000 0.83253  0.79309  0.07316  Biso   1.000  O
  O13      1.0000 0.32903  0.79213  0.68834  Biso   1.000  O
  O14      1.0000 0.21671  0.79213  0.68834  Biso   1.000  O
  O15      1.0000 0.83583  0.29019  0.07316  Biso   1.000  O
  O16      1.0000 0.83574  0.17852  0.18502  Biso   1.000  O
  O17      1.0000 0.33127  0.79309  0.07316  Biso   1.000  O
  O18      1.0000 0.21960  0.79337  0.18502  Biso   1.000  O
  O19      1.0000 0.83285  0.17728  0.68834  Biso   1.000  O
  O20      1.0000 0.83359  0.28923  0.68834  Biso   1.000  O
  O21      1.0000 0.38739  0.22949  0.61969  Biso   1.000  O
  O22      1.0000 0.27581  0.34144  0.61969  Biso   1.000  O
  O23      1.0000 0.77422  0.72535  0.12301  Biso   1.000  O
  O24      1.0000 0.77487  0.72563  0.23486  Biso   1.000  O
  O25      1.0000 0.77381  0.22949  0.61969  Biso   1.000  O
  O26      1.0000 0.77455  0.34144  0.61969  Biso   1.000  O
  O27      1.0000 0.27613  0.72563  0.23486  Biso   1.000  O
  O28      1.0000 0.38780  0.72535  0.12301  Biso   1.000  O
  O29      1.0000 0.77157  0.22853  0.23486  Biso   1.000  O
  O30      1.0000 0.77166  0.34020  0.12301  Biso   1.000  O
  O31      1.0000 0.39069  0.72659  0.61969  Biso   1.000  O
  O32      1.0000 0.27837  0.72659  0.61969  Biso   1.000  O
  O33      1.0000 0.24720  0.20484  0.71679  Biso   1.000  O
  O34      1.0000 0.19208  0.15009  0.77164  Biso   1.000  O
  O35      1.0000 0.86145  0.82164  0.10064  Biso   1.000  O
  O36      1.0000 0.91657  0.87640  0.04579  Biso   1.000  O
  O37      1.0000 0.24465  0.82068  0.71679  Biso   1.000  O
  O38      1.0000 0.19026  0.87571  0.77164  Biso   1.000  O
  O39      1.0000 0.86400  0.20580  0.10064  Biso   1.000  O
  O40      1.0000 0.91840  0.15077  0.04579  Biso   1.000  O
  O41      1.0000 0.24689  0.82164  0.10064  Biso   1.000  O
  O42      1.0000 0.19186  0.87640  0.04579  Biso   1.000  O
  O43      1.0000 0.86177  0.20484  0.71679  Biso   1.000  O
  O44      1.0000 0.91680  0.15009  0.77164  Biso   1.000  O
  O45      1.0000 0.36020  0.31387  0.59124  Biso   1.000  O
  O46      1.0000 0.41532  0.36863  0.53639  Biso   1.000  O
  O47      1.0000 0.74595  0.69708  0.20739  Biso   1.000  O
  O48      1.0000 0.69083  0.64232  0.26224  Biso   1.000  O
  O49      1.0000 0.74563  0.31387  0.59124  Biso   1.000  O
  O50      1.0000 0.69060  0.36863  0.53639  Biso   1.000  O
  O51      1.0000 0.36051  0.69708  0.20739  Biso   1.000  O
  O52      1.0000 0.41555  0.64232  0.26224  Biso   1.000  O
  O53      1.0000 0.74340  0.31291  0.20739  Biso   1.000  O
  O54      1.0000 0.68900  0.36795  0.26224  Biso   1.000  O
  O55      1.0000 0.36275  0.69804  0.59124  Biso   1.000  O
  O56      1.0000 0.41714  0.64301  0.53639  Biso   1.000  O
  O57      1.0000 0.05433  0.01324  0.90871  Biso   1.000  O
  O58      1.0000 0.55307  0.50548  0.39931  Biso   1.000  O
  O59      1.0000 0.22694  0.06785  0.79519  Biso   1.000  O
  O60      1.0000 0.10989  0.18530  0.79519  Biso   1.000  O
  O61      1.0000 0.94058  0.90005  0.08091  Biso   1.000  O
  O62      1.0000 0.93990  0.89976  0.96356  Biso   1.000  O
  O63      1.0000 0.22583  0.89934  0.79519  Biso   1.000  O
  O64      1.0000 0.10799  0.89934  0.79519  Biso   1.000  O
  O65      1.0000 0.94180  0.18572  0.96356  Biso   1.000  O
  O66      1.0000 0.94170  0.06857  0.08091  Biso   1.000  O
  O67      1.0000 0.22681  0.89976  0.96356  Biso   1.000  O
  O68      1.0000 0.10965  0.90005  0.08091  Biso   1.000  O
  O69      1.0000 0.94004  0.06785  0.79519  Biso   1.000  O
  O70      1.0000 0.94082  0.18530  0.79519  Biso   1.000  O
  O71      1.0000 0.49751  0.33342  0.51284  Biso   1.000  O
  O72      1.0000 0.38046  0.45087  0.51284  Biso   1.000  O
  O73      1.0000 0.66682  0.61866  0.22711  Biso   1.000  O
  O74      1.0000 0.66750  0.61896  0.34446  Biso   1.000  O
  O75      1.0000 0.66658  0.33342  0.51284  Biso   1.000  O
  O76      1.0000 0.66736  0.45087  0.51284  Biso   1.000  O
  O77      1.0000 0.38059  0.61896  0.34446  Biso   1.000  O
  O78      1.0000 0.49775  0.61866  0.22711  Biso   1.000  O
  O79      1.0000 0.66560  0.33300  0.34446  Biso   1.000  O
  O80      1.0000 0.66570  0.45015  0.22711  Biso   1.000  O
  O81      1.0000 0.49941  0.61938  0.51284  Biso   1.000  O
  O82      1.0000 0.38157  0.61938  0.51284  Biso   1.000  O
  O83      1.0000 0.36311  0.10167  0.71026  Biso   1.000  O
  O84      1.0000 0.14444  0.32108  0.71026  Biso   1.000  O
  O85      1.0000 0.85552  0.81539  0.21679  Biso   1.000  O
  O86      1.0000 0.85425  0.81484  0.99756  Biso   1.000  O
  O87      1.0000 0.14107  0.81412  0.71026  Biso   1.000  O
  O88      1.0000 0.85761  0.32180  0.99756  Biso   1.000  O
  O89      1.0000 0.85743  0.10293  0.21679  Biso   1.000  O
  O90      1.0000 0.36288  0.81484  0.99756  Biso   1.000  O
  O91      1.0000 0.14402  0.81539  0.21679  Biso   1.000  O
  O92      1.0000 0.85449  0.10167  0.71026  Biso   1.000  O
  O93      1.0000 0.85594  0.32108  0.71026  Biso   1.000  O
  O94      1.0000 0.46296  0.19764  0.59777  Biso   1.000  O
  O95      1.0000 0.24429  0.41705  0.59777  Biso   1.000  O
  O96      1.0000 0.75188  0.70333  0.09124  Biso   1.000  O
  O97      1.0000 0.75315  0.70388  0.31047  Biso   1.000  O
  O98      1.0000 0.75146  0.19764  0.59777  Biso   1.000  O
  O99      1.0000 0.75291  0.41705  0.59777  Biso   1.000  O
  O100     1.0000 0.24452  0.70388  0.31047  Biso   1.000  O
  O101     1.0000 0.46338  0.70333  0.09124  Biso   1.000  O
  O102     1.0000 0.74997  0.41578  0.09124  Biso   1.000  O
  O103     1.0000 0.46633  0.70459  0.59777  Biso   1.000  O
  O104     1.0000 0.24619  0.70459  0.59777  Biso   1.000  O
  O105     1.0000 0.74979  0.19692  0.31047  Biso   1.000  O
