data_image0
_cell_length_a       18.3149
_cell_length_b       18.3149
_cell_length_c       18.3149
_cell_angle_alpha    60.3295
_cell_angle_beta     60.3295
_cell_angle_gamma    60.3295

_symmetry_space_group_name_H-M    "P 1"
_symmetry_int_tables_number       1

loop_
  _symmetry_equiv_pos_as_xyz
  'x, y, z'

loop_
  _atom_site_label
  _atom_site_occupancy
  _atom_site_fract_x
  _atom_site_fract_y
  _atom_site_fract_z
  _atom_site_thermal_displace_type
  _atom_site_B_iso_or_equiv
  _atom_site_type_symbol
  Zn1      1.0000 0.20609  0.20609  0.20609  Biso   1.000  Zn
  Zn2      1.0000 0.79391  0.79391  0.79391  Biso   1.000  Zn
  Zn3      1.0000 0.20677  0.37952  0.20677  Biso   1.000  Zn
  Zn4      1.0000 0.20677  0.20677  0.37952  Biso   1.000  Zn
  Zn5      1.0000 0.37952  0.20677  0.20677  Biso   1.000  Zn
  Zn6      1.0000 0.62048  0.79323  0.79323  Biso   1.000  Zn
  Zn7      1.0000 0.79323  0.79323  0.62048  Biso   1.000  Zn
  Zn8      1.0000 0.79323  0.62048  0.79323  Biso   1.000  Zn
  H1       1.0000 0.04260  0.34350  0.56530  Biso   1.000  H
  H2       1.0000 0.56530  0.04260  0.34350  Biso   1.000  H
  H3       1.0000 0.34350  0.56530  0.04260  Biso   1.000  H
  H4       1.0000 0.65650  0.95740  0.43470  Biso   1.000  H
  H5       1.0000 0.95740  0.43470  0.65650  Biso   1.000  H
  H6       1.0000 0.43470  0.65650  0.95740  Biso   1.000  H
  H7       1.0000 0.95740  0.65650  0.43470  Biso   1.000  H
  H8       1.0000 0.43470  0.95740  0.65650  Biso   1.000  H
  H9       1.0000 0.65650  0.43470  0.95740  Biso   1.000  H
  H10      1.0000 0.34350  0.04260  0.56530  Biso   1.000  H
  H11      1.0000 0.04260  0.56530  0.34350  Biso   1.000  H
  H12      1.0000 0.56530  0.34350  0.04260  Biso   1.000  H
  H13      1.0000 0.04880  0.55860  0.04880  Biso   1.000  H
  H14      1.0000 0.04170  0.34450  0.04170  Biso   1.000  H
  H15      1.0000 0.04880  0.04880  0.55860  Biso   1.000  H
  H16      1.0000 0.04170  0.04170  0.34450  Biso   1.000  H
  H17      1.0000 0.55860  0.04880  0.04880  Biso   1.000  H
  H18      1.0000 0.34450  0.04170  0.04170  Biso   1.000  H
  H19      1.0000 0.44140  0.95120  0.95120  Biso   1.000  H
  H20      1.0000 0.65550  0.95830  0.95830  Biso   1.000  H
  H21      1.0000 0.95120  0.95120  0.44140  Biso   1.000  H
  H22      1.0000 0.95830  0.95830  0.65550  Biso   1.000  H
  H23      1.0000 0.95120  0.44140  0.95120  Biso   1.000  H
  H24      1.0000 0.95830  0.65550  0.95830  Biso   1.000  H
  C1       1.0000 0.02770  0.40510  0.53870  Biso   1.000  C
  C2       1.0000 0.53870  0.02770  0.40510  Biso   1.000  C
  C3       1.0000 0.40510  0.53870  0.02770  Biso   1.000  C
  C4       1.0000 0.59490  0.97230  0.46130  Biso   1.000  C
  C5       1.0000 0.97230  0.46130  0.59490  Biso   1.000  C
  C6       1.0000 0.46130  0.59490  0.97230  Biso   1.000  C
  C7       1.0000 0.97230  0.59490  0.46130  Biso   1.000  C
  C8       1.0000 0.46130  0.97230  0.59490  Biso   1.000  C
  C9       1.0000 0.59490  0.46130  0.97230  Biso   1.000  C
  C10      1.0000 0.40510  0.02770  0.53870  Biso   1.000  C
  C11      1.0000 0.02770  0.53870  0.40510  Biso   1.000  C
  C12      1.0000 0.53870  0.40510  0.02770  Biso   1.000  C
  C13      1.0000 0.11130  0.39010  0.11130  Biso   1.000  C
  C14      1.0000 0.05390  0.44400  0.05390  Biso   1.000  C
  C15      1.0000 0.02940  0.53530  0.02940  Biso   1.000  C
  C16      1.0000 0.02520  0.40600  0.02520  Biso   1.000  C
  C17      1.0000 0.11130  0.11130  0.39010  Biso   1.000  C
  C18      1.0000 0.05390  0.05390  0.44400  Biso   1.000  C
  C19      1.0000 0.02940  0.02940  0.53530  Biso   1.000  C
  C20      1.0000 0.02520  0.02520  0.40600  Biso   1.000  C
  C21      1.0000 0.39010  0.11130  0.11130  Biso   1.000  C
  C22      1.0000 0.44400  0.05390  0.05390  Biso   1.000  C
  C23      1.0000 0.53530  0.02940  0.02940  Biso   1.000  C
  C24      1.0000 0.40600  0.02520  0.02520  Biso   1.000  C
  C25      1.0000 0.60990  0.88870  0.88870  Biso   1.000  C
  C26      1.0000 0.55600  0.94610  0.94610  Biso   1.000  C
  C27      1.0000 0.46470  0.97060  0.97060  Biso   1.000  C
  C28      1.0000 0.59400  0.97480  0.97480  Biso   1.000  C
  C29      1.0000 0.88870  0.88870  0.60990  Biso   1.000  C
  C30      1.0000 0.94610  0.94610  0.55600  Biso   1.000  C
  C31      1.0000 0.97060  0.97060  0.46470  Biso   1.000  C
  C32      1.0000 0.97480  0.97480  0.59400  Biso   1.000  C
  C33      1.0000 0.88870  0.60990  0.88870  Biso   1.000  C
  C34      1.0000 0.94610  0.55600  0.94610  Biso   1.000  C
  C35      1.0000 0.97060  0.46470  0.97060  Biso   1.000  C
  C36      1.0000 0.97480  0.59400  0.97480  Biso   1.000  C
  C37      1.0000 0.11170  0.38940  0.38940  Biso   1.000  C
  C38      1.0000 0.05990  0.44245  0.44245  Biso   1.000  C
  C39      1.0000 0.38940  0.11170  0.38940  Biso   1.000  C
  C40      1.0000 0.44245  0.05990  0.44245  Biso   1.000  C
  C41      1.0000 0.38940  0.38940  0.11170  Biso   1.000  C
  C42      1.0000 0.44245  0.44245  0.05990  Biso   1.000  C
  C43      1.0000 0.61060  0.88830  0.61060  Biso   1.000  C
  C44      1.0000 0.55755  0.94010  0.55755  Biso   1.000  C
  C45      1.0000 0.88830  0.61060  0.61060  Biso   1.000  C
  C46      1.0000 0.94010  0.55755  0.55755  Biso   1.000  C
  C47      1.0000 0.61060  0.61060  0.88830  Biso   1.000  C
  C48      1.0000 0.55755  0.55755  0.94010  Biso   1.000  C
  O1       1.0000 0.13529  0.42759  0.30119  Biso   1.000  O
  O2       1.0000 0.30119  0.13529  0.42759  Biso   1.000  O
  O3       1.0000 0.42759  0.30119  0.13529  Biso   1.000  O
  O4       1.0000 0.57241  0.86471  0.69881  Biso   1.000  O
  O5       1.0000 0.86471  0.69881  0.57241  Biso   1.000  O
  O6       1.0000 0.69881  0.57241  0.86471  Biso   1.000  O
  O7       1.0000 0.86471  0.57241  0.69881  Biso   1.000  O
  O8       1.0000 0.69881  0.86471  0.57241  Biso   1.000  O
  O9       1.0000 0.57241  0.69881  0.86471  Biso   1.000  O
  O10      1.0000 0.42759  0.13529  0.30119  Biso   1.000  O
  O11      1.0000 0.13529  0.30119  0.42759  Biso   1.000  O
  O12      1.0000 0.30119  0.42759  0.13529  Biso   1.000  O
  O13      1.0000 0.25153  0.25153  0.25153  Biso   1.000  O
  O14      1.0000 0.74847  0.74847  0.74847  Biso   1.000  O
  O15      1.0000 0.13410  0.30220  0.13410  Biso   1.000  O
  O16      1.0000 0.13380  0.42820  0.13380  Biso   1.000  O
  O17      1.0000 0.13410  0.13410  0.30220  Biso   1.000  O
  O18      1.0000 0.13380  0.13380  0.42820  Biso   1.000  O
  O19      1.0000 0.30220  0.13410  0.13410  Biso   1.000  O
  O20      1.0000 0.42820  0.13380  0.13380  Biso   1.000  O
  O21      1.0000 0.69780  0.86590  0.86590  Biso   1.000  O
  O22      1.0000 0.57180  0.86620  0.86620  Biso   1.000  O
  O23      1.0000 0.86590  0.86590  0.69780  Biso   1.000  O
  O24      1.0000 0.86620  0.86620  0.57180  Biso   1.000  O
  O25      1.0000 0.86590  0.69780  0.86590  Biso   1.000  O
  O26      1.0000 0.86620  0.57180  0.86620  Biso   1.000  O
  Zn9      1.0000 0.00000  0.00000  0.00000  Biso   1.000  Zn
  Zn10     1.0000 0.00101  0.00043  0.17288  Biso   1.000  Zn
  Zn11     1.0000 0.82741  0.00043  0.17288  Biso   1.000  Zn
  Zn12     1.0000 0.99986  0.82741  0.17288  Biso   1.000  Zn
  Zn13     1.0000 0.41923  0.41266  0.75618  Biso   1.000  Zn
  Zn14     1.0000 0.41822  0.41222  0.58330  Biso   1.000  Zn
  Zn15     1.0000 0.41937  0.58524  0.58330  Biso   1.000  Zn
  Zn16     1.0000 0.59182  0.41222  0.58330  Biso   1.000  Zn
  H25      1.0000 0.16724  0.16296  0.81105  Biso   1.000  H
  H26      1.0000 0.16271  0.16101  0.03397  Biso   1.000  H
  H27      1.0000 0.64182  0.86181  0.33367  Biso   1.000  H
  H28      1.0000 0.86669  0.63954  0.33367  Biso   1.000  H
  H29      1.0000 0.16589  0.63879  0.03397  Biso   1.000  H
  H30      1.0000 0.16524  0.86300  0.81105  Biso   1.000  H
  H31      1.0000 0.64381  0.16176  0.33367  Biso   1.000  H
  H32      1.0000 0.86351  0.16176  0.33367  Biso   1.000  H
  H33      1.0000 0.16247  0.86181  0.33367  Biso   1.000  H
  H34      1.0000 0.16763  0.63954  0.33367  Biso   1.000  H
  H35      1.0000 0.64207  0.16101  0.03397  Biso   1.000  H
  H36      1.0000 0.86629  0.16296  0.81105  Biso   1.000  H
  H37      1.0000 0.25199  0.24970  0.94513  Biso   1.000  H
  H38      1.0000 0.25652  0.25165  0.72221  Biso   1.000  H
  H39      1.0000 0.55254  0.77312  0.42251  Biso   1.000  H
  H40      1.0000 0.77741  0.55085  0.42251  Biso   1.000  H
  H41      1.0000 0.77716  0.25165  0.72221  Biso   1.000  H
  H42      1.0000 0.55294  0.24970  0.94513  Biso   1.000  H
  H43      1.0000 0.25160  0.77312  0.42251  Biso   1.000  H
  H44      1.0000 0.25676  0.55085  0.42251  Biso   1.000  H
  H45      1.0000 0.55572  0.25090  0.42251  Biso   1.000  H
  H46      1.0000 0.77542  0.25090  0.42251  Biso   1.000  H
  H47      1.0000 0.25334  0.77387  0.72221  Biso   1.000  H
  H48      1.0000 0.25399  0.54966  0.94513  Biso   1.000  H
  C49      1.0000 0.18548  0.18093  0.83749  Biso   1.000  C
  C50      1.0000 0.18044  0.17877  0.97173  Biso   1.000  C
  C51      1.0000 0.66807  0.79956  0.35157  Biso   1.000  C
  C52      1.0000 0.80447  0.66605  0.35157  Biso   1.000  C
  C53      1.0000 0.18367  0.66510  0.97173  Biso   1.000  C
  C54      1.0000 0.18296  0.80078  0.83749  Biso   1.000  C
  C55      1.0000 0.67059  0.17972  0.35157  Biso   1.000  C
  C56      1.0000 0.80124  0.17972  0.35157  Biso   1.000  C
  C57      1.0000 0.18013  0.79956  0.35157  Biso   1.000  C
  C58      1.0000 0.18588  0.66605  0.35157  Biso   1.000  C
  C59      1.0000 0.66838  0.17877  0.97173  Biso   1.000  C
  C60      1.0000 0.80407  0.18093  0.83749  Biso   1.000  C
  C61      1.0000 0.23375  0.23172  0.91868  Biso   1.000  C
  C62      1.0000 0.23879  0.23389  0.78445  Biso   1.000  C
  C63      1.0000 0.61476  0.74661  0.40461  Biso   1.000  C
  C64      1.0000 0.75116  0.61309  0.40461  Biso   1.000  C
  C65      1.0000 0.75085  0.23389  0.78445  Biso   1.000  C
  C66      1.0000 0.61516  0.23172  0.91868  Biso   1.000  C
  C67      1.0000 0.23335  0.74661  0.40461  Biso   1.000  C
  C68      1.0000 0.23910  0.61309  0.40461  Biso   1.000  C
  C69      1.0000 0.61799  0.23294  0.40461  Biso   1.000  C
  C70      1.0000 0.74864  0.23294  0.40461  Biso   1.000  C
  C71      1.0000 0.23556  0.74756  0.78445  Biso   1.000  C
  C72      1.0000 0.23627  0.61188  0.91868  Biso   1.000  C
  C73      1.0000 0.09540  0.09450  0.99200  Biso   1.000  C
  C74      1.0000 0.15305  0.15176  0.93464  Biso   1.000  C
  C75      1.0000 0.81872  0.81964  0.26732  Biso   1.000  C
  C76      1.0000 0.76108  0.76238  0.32468  Biso   1.000  C
  C77      1.0000 0.09357  0.81895  0.99200  Biso   1.000  C
  C78      1.0000 0.15045  0.76141  0.93464  Biso   1.000  C
  C79      1.0000 0.82055  0.09519  0.26732  Biso   1.000  C
  C80      1.0000 0.76367  0.15274  0.32468  Biso   1.000  C
  C81      1.0000 0.09518  0.81964  0.26732  Biso   1.000  C
  C82      1.0000 0.15272  0.76238  0.32468  Biso   1.000  C
  C83      1.0000 0.81895  0.09450  0.99200  Biso   1.000  C
  C84      1.0000 0.76140  0.15176  0.93464  Biso   1.000  C
  C85      1.0000 0.32383  0.31816  0.76418  Biso   1.000  C
  C86      1.0000 0.26618  0.26089  0.82153  Biso   1.000  C
  C87      1.0000 0.60051  0.59301  0.48886  Biso   1.000  C
  C88      1.0000 0.65815  0.65028  0.43150  Biso   1.000  C
  C89      1.0000 0.60028  0.31816  0.76418  Biso   1.000  C
  C90      1.0000 0.65783  0.26089  0.82153  Biso   1.000  C
  C91      1.0000 0.32405  0.59301  0.48886  Biso   1.000  C
  C92      1.0000 0.26651  0.65028  0.43150  Biso   1.000  C
  C93      1.0000 0.59868  0.31747  0.48886  Biso   1.000  C
  C94      1.0000 0.65556  0.25992  0.43150  Biso   1.000  C
  C95      1.0000 0.32566  0.59370  0.76418  Biso   1.000  C
  C96      1.0000 0.26878  0.65125  0.82153  Biso   1.000  C
  O27      1.0000 0.95706  0.95707  0.12966  Biso   1.000  O
  O28      1.0000 0.46217  0.45559  0.62652  Biso   1.000  O
  O29      1.0000 0.07264  0.07209  0.95376  Biso   1.000  O
  O30      1.0000 0.07335  0.07239  0.07484  Biso   1.000  O
  O31      1.0000 0.78074  0.90249  0.24502  Biso   1.000  O
  O32      1.0000 0.90151  0.78132  0.24502  Biso   1.000  O
  O33      1.0000 0.07141  0.78089  0.07484  Biso   1.000  O
  O34      1.0000 0.07151  0.90176  0.95376  Biso   1.000  O
  O35      1.0000 0.78187  0.07282  0.24502  Biso   1.000  O
  O36      1.0000 0.90345  0.07282  0.24502  Biso   1.000  O
  O37      1.0000 0.07321  0.90249  0.24502  Biso   1.000  O
  O38      1.0000 0.07240  0.78132  0.24502  Biso   1.000  O
  O39      1.0000 0.78088  0.07239  0.07484  Biso   1.000  O
  O40      1.0000 0.90175  0.07209  0.95376  Biso   1.000  O
  O41      1.0000 0.34659  0.34057  0.80242  Biso   1.000  O
  O42      1.0000 0.34588  0.34027  0.68134  Biso   1.000  O
  O43      1.0000 0.51772  0.63134  0.51116  Biso   1.000  O
  O44      1.0000 0.63849  0.51017  0.51116  Biso   1.000  O
  O45      1.0000 0.63835  0.34027  0.68134  Biso   1.000  O
  O46      1.0000 0.51748  0.34057  0.80242  Biso   1.000  O
  O47      1.0000 0.34683  0.63134  0.51116  Biso   1.000  O
  O48      1.0000 0.34602  0.51017  0.51116  Biso   1.000  O
  O49      1.0000 0.51578  0.33984  0.51116  Biso   1.000  O
  O50      1.0000 0.63736  0.33984  0.51116  Biso   1.000  O
  O51      1.0000 0.34782  0.63177  0.68134  Biso   1.000  O
