data_image0
_cell_length_a       18.3063
_cell_length_b       18.3063
_cell_length_c       18.3063
_cell_angle_alpha    60
_cell_angle_beta     60
_cell_angle_gamma    60

_symmetry_space_group_name_H-M    "P 1"
_symmetry_int_tables_number       1

loop_
  _symmetry_equiv_pos_as_xyz
  'x, y, z'

loop_
  _atom_site_label
  _atom_site_occupancy
  _atom_site_fract_x
  _atom_site_fract_y
  _atom_site_fract_z
  _atom_site_thermal_displace_type
  _atom_site_B_iso_or_equiv
  _atom_site_type_symbol
  C1       1.0000 0.20664  0.38006  0.20665  Biso   1.000  C
  C2       1.0000 0.38005  0.20665  0.20665  Biso   1.000  C
  C3       1.0000 0.20664  0.20665  0.20665  Biso   1.000  C
  C4       1.0000 0.20664  0.20665  0.38006  Biso   1.000  C
  C5       1.0000 0.61995  0.79335  0.79335  Biso   1.000  C
  C6       1.0000 0.79336  0.61994  0.79335  Biso   1.000  C
  C7       1.0000 0.79336  0.79335  0.79335  Biso   1.000  C
  C8       1.0000 0.79336  0.79335  0.61994  Biso   1.000  C
  C9       1.0000 0.04520  0.56560  0.04520  Biso   1.000  C
  C10      1.0000 0.56560  0.04520  0.34400  Biso   1.000  C
  C11      1.0000 0.04520  0.34400  0.04520  Biso   1.000  C
  C12      1.0000 0.34400  0.04520  0.56560  Biso   1.000  C
  C13      1.0000 0.04520  0.04520  0.34400  Biso   1.000  C
  C14      1.0000 0.56560  0.34400  0.04520  Biso   1.000  C
  C15      1.0000 0.04520  0.04520  0.56560  Biso   1.000  C
  C16      1.0000 0.34400  0.56560  0.04520  Biso   1.000  C
  C17      1.0000 0.04520  0.34400  0.56560  Biso   1.000  C
  C18      1.0000 0.56560  0.04520  0.04520  Biso   1.000  C
  C19      1.0000 0.04520  0.56560  0.34400  Biso   1.000  C
  C20      1.0000 0.34400  0.04520  0.04520  Biso   1.000  C
  C21      1.0000 0.43440  0.95480  0.95480  Biso   1.000  C
  C22      1.0000 0.95480  0.43440  0.65600  Biso   1.000  C
  C23      1.0000 0.65600  0.95480  0.95480  Biso   1.000  C
  C24      1.0000 0.95480  0.65600  0.43440  Biso   1.000  C
  C25      1.0000 0.95480  0.95480  0.65600  Biso   1.000  C
  C26      1.0000 0.65600  0.43440  0.95480  Biso   1.000  C
  C27      1.0000 0.95480  0.95480  0.43440  Biso   1.000  C
  C28      1.0000 0.43440  0.65600  0.95480  Biso   1.000  C
  C29      1.0000 0.65600  0.95480  0.43440  Biso   1.000  C
  C30      1.0000 0.95480  0.43440  0.95480  Biso   1.000  C
  C31      1.0000 0.43440  0.95480  0.65600  Biso   1.000  C
  C32      1.0000 0.95480  0.65600  0.95480  Biso   1.000  C
  C33      1.0000 0.02683  0.53905  0.02683  Biso   1.000  C
  C34      1.0000 0.53905  0.02683  0.40729  Biso   1.000  C
  C35      1.0000 0.02683  0.40729  0.02683  Biso   1.000  C
  C36      1.0000 0.40729  0.02683  0.53905  Biso   1.000  C
  C37      1.0000 0.02683  0.02683  0.40729  Biso   1.000  C
  C38      1.0000 0.53905  0.40729  0.02683  Biso   1.000  C
  C39      1.0000 0.02683  0.02683  0.53905  Biso   1.000  C
  C40      1.0000 0.40729  0.53905  0.02683  Biso   1.000  C
  C41      1.0000 0.02683  0.40729  0.53905  Biso   1.000  C
  C42      1.0000 0.53905  0.02683  0.02683  Biso   1.000  C
  C43      1.0000 0.02683  0.53905  0.40729  Biso   1.000  C
  C44      1.0000 0.40729  0.02683  0.02683  Biso   1.000  C
  C45      1.0000 0.46095  0.97317  0.97317  Biso   1.000  C
  C46      1.0000 0.97317  0.46095  0.59271  Biso   1.000  C
  C47      1.0000 0.59271  0.97317  0.97317  Biso   1.000  C
  C48      1.0000 0.97317  0.59271  0.46095  Biso   1.000  C
  C49      1.0000 0.97317  0.97317  0.59271  Biso   1.000  C
  C50      1.0000 0.59271  0.46095  0.97317  Biso   1.000  C
  C51      1.0000 0.97317  0.97317  0.46095  Biso   1.000  C
  C52      1.0000 0.46095  0.59271  0.97317  Biso   1.000  C
  C53      1.0000 0.59271  0.97317  0.46095  Biso   1.000  C
  C54      1.0000 0.97317  0.46095  0.97317  Biso   1.000  C
  C55      1.0000 0.46095  0.97317  0.59271  Biso   1.000  C
  C56      1.0000 0.97317  0.59271  0.97317  Biso   1.000  C
  C57      1.0000 0.11144  0.38856  0.11144  Biso   1.000  C
  C58      1.0000 0.05381  0.44619  0.05381  Biso   1.000  C
  C59      1.0000 0.38856  0.11144  0.38856  Biso   1.000  C
  C60      1.0000 0.44619  0.05381  0.44619  Biso   1.000  C
  C61      1.0000 0.11144  0.11144  0.38856  Biso   1.000  C
  C62      1.0000 0.05381  0.05381  0.44619  Biso   1.000  C
  C63      1.0000 0.38856  0.38856  0.11144  Biso   1.000  C
  C64      1.0000 0.44619  0.44619  0.05381  Biso   1.000  C
  C65      1.0000 0.11144  0.38856  0.38856  Biso   1.000  C
  C66      1.0000 0.05381  0.44619  0.44619  Biso   1.000  C
  C67      1.0000 0.38856  0.11144  0.11144  Biso   1.000  C
  C68      1.0000 0.44619  0.05381  0.05381  Biso   1.000  C
  C69      1.0000 0.61144  0.88856  0.88856  Biso   1.000  C
  C70      1.0000 0.55381  0.94619  0.94619  Biso   1.000  C
  C71      1.0000 0.88856  0.61144  0.61144  Biso   1.000  C
  C72      1.0000 0.94619  0.55381  0.55381  Biso   1.000  C
  C73      1.0000 0.88856  0.88856  0.61144  Biso   1.000  C
  C74      1.0000 0.94619  0.94619  0.55381  Biso   1.000  C
  C75      1.0000 0.61144  0.61144  0.88856  Biso   1.000  C
  C76      1.0000 0.55381  0.55381  0.94619  Biso   1.000  C
  C77      1.0000 0.61144  0.88856  0.61144  Biso   1.000  C
  C78      1.0000 0.55381  0.94619  0.55381  Biso   1.000  C
  C79      1.0000 0.88856  0.61144  0.88856  Biso   1.000  C
  C80      1.0000 0.94619  0.55381  0.94619  Biso   1.000  C
  C81      1.0000 0.25000  0.25000  0.25000  Biso   1.000  C
  C82      1.0000 0.75000  0.75000  0.75000  Biso   1.000  C
  C83      1.0000 0.13368  0.42768  0.13368  Biso   1.000  C
  C84      1.0000 0.42768  0.13368  0.30496  Biso   1.000  C
  C85      1.0000 0.13368  0.30496  0.13368  Biso   1.000  C
  C86      1.0000 0.30496  0.13368  0.42768  Biso   1.000  C
  C87      1.0000 0.13368  0.13368  0.30496  Biso   1.000  C
  C88      1.0000 0.42768  0.30496  0.13368  Biso   1.000  C
  C89      1.0000 0.13368  0.13368  0.42768  Biso   1.000  C
  C90      1.0000 0.30496  0.42768  0.13368  Biso   1.000  C
  C91      1.0000 0.13368  0.30496  0.42768  Biso   1.000  C
  C92      1.0000 0.42768  0.13368  0.13368  Biso   1.000  C
  C93      1.0000 0.13368  0.42768  0.30496  Biso   1.000  C
  C94      1.0000 0.30496  0.13368  0.13368  Biso   1.000  C
  C95      1.0000 0.57232  0.86632  0.86632  Biso   1.000  C
  C96      1.0000 0.86632  0.57232  0.69504  Biso   1.000  C
  C97      1.0000 0.69504  0.86632  0.86632  Biso   1.000  C
  C98      1.0000 0.86632  0.69504  0.57232  Biso   1.000  C
  C99      1.0000 0.86632  0.86632  0.69504  Biso   1.000  C
  C100     1.0000 0.69504  0.57232  0.86632  Biso   1.000  C
  C101     1.0000 0.86632  0.86632  0.57232  Biso   1.000  C
  C102     1.0000 0.57232  0.69504  0.86632  Biso   1.000  C
  C103     1.0000 0.69504  0.86632  0.57232  Biso   1.000  C
  C104     1.0000 0.86632  0.57232  0.86632  Biso   1.000  C
  C105     1.0000 0.57232  0.86632  0.69504  Biso   1.000  C
  C106     1.0000 0.86632  0.69504  0.86632  Biso   1.000  C
  O1       1.0000 0.00000  0.00000  0.00000  Biso   1.000  O
  O2       1.0000 0.41392  0.58595  0.41419  Biso   1.000  O
  O3       1.0000 0.41392  0.41159  0.41419  Biso   1.000  O
  O4       1.0000 1.00000  0.82564  0.00000  Biso   1.000  O
  O5       1.0000 0.99954  0.00034  0.82542  Biso   1.000  O
  O6       1.0000 0.82524  0.00015  0.00010  Biso   1.000  O
  O7       1.0000 0.41438  0.41125  0.58877  Biso   1.000  O
  O8       1.0000 0.58868  0.41144  0.41409  Biso   1.000  O
  O9       1.0000 0.16558  0.64358  0.85686  Biso   1.000  O
  O10      1.0000 0.15632  0.86072  0.64577  Biso   1.000  O
  O11      1.0000 0.86260  0.64466  0.15967  Biso   1.000  O
  O12      1.0000 0.64277  0.85820  0.16197  Biso   1.000  O
  O13      1.0000 0.16639  0.86020  0.15718  Biso   1.000  O
  O14      1.0000 0.24834  0.25196  0.55733  Biso   1.000  O
  O15      1.0000 0.25760  0.24876  0.76842  Biso   1.000  O
  O16      1.0000 0.55132  0.25288  0.25452  Biso   1.000  O
  O17      1.0000 0.77115  0.24889  0.25222  Biso   1.000  O
  O18      1.0000 0.24752  0.76971  0.25701  Biso   1.000  O
  O19      1.0000 0.24834  0.76800  0.55733  Biso   1.000  O
  O20      1.0000 0.25760  0.55086  0.76842  Biso   1.000  O
  O21      1.0000 0.55132  0.76692  0.25452  Biso   1.000  O
  O22      1.0000 0.77115  0.55338  0.25222  Biso   1.000  O
  O23      1.0000 0.24753  0.55139  0.25701  Biso   1.000  O
  O24      1.0000 0.16558  0.15962  0.85686  Biso   1.000  O
  O25      1.0000 0.15632  0.16282  0.64577  Biso   1.000  O
  O26      1.0000 0.86260  0.15871  0.15967  Biso   1.000  O
  O27      1.0000 0.64277  0.16270  0.16197  Biso   1.000  O
  O28      1.0000 0.16640  0.64187  0.15718  Biso   1.000  O
  O29      1.0000 0.64366  0.16152  0.85895  Biso   1.000  O
  O30      1.0000 0.85691  0.16262  0.64348  Biso   1.000  O
  O31      1.0000 0.77026  0.25007  0.55524  Biso   1.000  O
  O32      1.0000 0.55701  0.24896  0.77071  Biso   1.000  O
  O33      1.0000 0.09401  0.81714  0.82056  Biso   1.000  O
  O34      1.0000 0.15343  0.75922  0.75954  Biso   1.000  O
  O35      1.0000 0.18333  0.66921  0.79484  Biso   1.000  O
  O36      1.0000 0.17566  0.79881  0.67170  Biso   1.000  O
  O37      1.0000 0.81575  0.82032  0.09686  Biso   1.000  O
  O38      1.0000 0.76182  0.76199  0.15200  Biso   1.000  O
  O39      1.0000 0.80059  0.67078  0.17762  Biso   1.000  O
  O40      1.0000 0.67039  0.79639  0.17942  Biso   1.000  O
  O41      1.0000 0.18224  0.79828  0.17722  Biso   1.000  O
  O42      1.0000 0.31991  0.31767  0.59363  Biso   1.000  O
  O43      1.0000 0.26049  0.25814  0.65465  Biso   1.000  O
  O44      1.0000 0.23060  0.23332  0.61935  Biso   1.000  O
  O45      1.0000 0.23826  0.23211  0.74249  Biso   1.000  O
  O46      1.0000 0.59817  0.31888  0.31733  Biso   1.000  O
  O47      1.0000 0.65210  0.26175  0.26219  Biso   1.000  O
  O48      1.0000 0.61334  0.23493  0.23657  Biso   1.000  O
  O49      1.0000 0.74353  0.23214  0.23477  Biso   1.000  O
  O50      1.0000 0.23167  0.74369  0.23697  Biso   1.000  O
  O51      1.0000 0.31991  0.59444  0.59363  Biso   1.000  O
  O52      1.0000 0.26049  0.65237  0.65465  Biso   1.000  O
  O53      1.0000 0.23059  0.74238  0.61935  Biso   1.000  O
  O54      1.0000 0.23826  0.61278  0.74249  Biso   1.000  O
  O55      1.0000 0.59817  0.59127  0.31733  Biso   1.000  O
  O56      1.0000 0.65210  0.64960  0.26219  Biso   1.000  O
  O57      1.0000 0.61333  0.74080  0.23657  Biso   1.000  O
  O58      1.0000 0.74353  0.61520  0.23477  Biso   1.000  O
  O59      1.0000 0.23167  0.61330  0.23697  Biso   1.000  O
  O60      1.0000 0.09401  0.09392  0.82056  Biso   1.000  O
  O61      1.0000 0.15343  0.15345  0.75954  Biso   1.000  O
  O62      1.0000 0.18332  0.17827  0.79484  Biso   1.000  O
  O63      1.0000 0.17566  0.17947  0.67170  Biso   1.000  O
  O64      1.0000 0.81575  0.09271  0.09686  Biso   1.000  O
  O65      1.0000 0.76182  0.14984  0.15200  Biso   1.000  O
  O66      1.0000 0.80058  0.17666  0.17762  Biso   1.000  O
  O67      1.0000 0.67039  0.17945  0.17942  Biso   1.000  O
  O68      1.0000 0.18225  0.66789  0.17722  Biso   1.000  O
  O69      1.0000 0.82242  0.09472  0.81378  Biso   1.000  O
  O70      1.0000 0.76040  0.15175  0.76174  Biso   1.000  O
  O71      1.0000 0.67077  0.17887  0.79713  Biso   1.000  O
  O72      1.0000 0.79500  0.18007  0.67050  Biso   1.000  O
  O73      1.0000 0.09253  0.82211  0.08888  Biso   1.000  O
  O74      1.0000 0.15235  0.76059  0.15210  Biso   1.000  O
  O75      1.0000 0.59150  0.31687  0.60041  Biso   1.000  O
  O76      1.0000 0.65352  0.25984  0.65245  Biso   1.000  O
  O77      1.0000 0.74315  0.23272  0.61706  Biso   1.000  O
  O78      1.0000 0.61892  0.23151  0.74369  Biso   1.000  O
  O79      1.0000 0.32139  0.58947  0.32531  Biso   1.000  O
  O80      1.0000 0.26157  0.65099  0.26209  Biso   1.000  O
  O81      1.0000 0.07397  0.90229  0.77480  Biso   1.000  O
  O82      1.0000 0.07527  0.77337  0.90452  Biso   1.000  O
  O83      1.0000 0.77597  0.90327  0.07043  Biso   1.000  O
  O84      1.0000 0.90180  0.77635  0.07442  Biso   1.000  O
  O85      1.0000 0.07348  0.90427  0.07163  Biso   1.000  O
  O86      1.0000 0.33995  0.33701  0.63939  Biso   1.000  O
  O87      1.0000 0.33865  0.33911  0.50967  Biso   1.000  O
  O88      1.0000 0.63795  0.33563  0.34376  Biso   1.000  O
  O89      1.0000 0.51212  0.33852  0.33977  Biso   1.000  O
  O90      1.0000 0.34044  0.63533  0.34256  Biso   1.000  O
  O91      1.0000 0.33995  0.50929  0.63939  Biso   1.000  O
  O92      1.0000 0.33865  0.63822  0.50967  Biso   1.000  O
  O93      1.0000 0.63795  0.50831  0.34376  Biso   1.000  O
  O94      1.0000 0.51212  0.63523  0.33977  Biso   1.000  O
  O95      1.0000 0.34044  0.50731  0.34256  Biso   1.000  O
  O96      1.0000 0.07397  0.07458  0.77480  Biso   1.000  O
  O97      1.0000 0.07527  0.07248  0.90452  Biso   1.000  O
  O98      1.0000 0.77597  0.07596  0.07043  Biso   1.000  O
  O99      1.0000 0.90180  0.07307  0.07442  Biso   1.000  O
  O100     1.0000 0.07348  0.77625  0.07163  Biso   1.000  O
  O101     1.0000 0.95693  0.95632  0.95607  Biso   1.000  O
  O102     1.0000 0.90298  0.07358  0.77550  Biso   1.000  O
  O103     1.0000 0.77736  0.07587  0.89654  Biso   1.000  O
  O104     1.0000 0.45699  0.45526  0.45812  Biso   1.000  O
  O105     1.0000 0.51094  0.33800  0.63870  Biso   1.000  O
