data_image0
_cell_length_a       18.283
_cell_length_b       18.283
_cell_length_c       18.283
_cell_angle_alpha    60
_cell_angle_beta     60
_cell_angle_gamma    60

_symmetry_space_group_name_H-M    "P 1"
_symmetry_int_tables_number       1

loop_
  _symmetry_equiv_pos_as_xyz
  'x, y, z'

loop_
  _atom_site_label
  _atom_site_occupancy
  _atom_site_fract_x
  _atom_site_fract_y
  _atom_site_fract_z
  _atom_site_thermal_displace_type
  _atom_site_B_iso_or_equiv
  _atom_site_type_symbol
  Zn1      1.0000 0.20657  0.38031  0.20656  Biso   1.000  Zn
  Zn2      1.0000 0.38032  0.20656  0.20656  Biso   1.000  Zn
  Zn3      1.0000 0.20657  0.20656  0.20656  Biso   1.000  Zn
  Zn4      1.0000 0.20657  0.20656  0.38031  Biso   1.000  Zn
  Zn5      1.0000 0.61968  0.79344  0.79344  Biso   1.000  Zn
  Zn6      1.0000 0.79343  0.61969  0.79344  Biso   1.000  Zn
  Zn7      1.0000 0.79343  0.79344  0.79344  Biso   1.000  Zn
  Zn8      1.0000 0.79343  0.79344  0.61969  Biso   1.000  Zn
  H1       1.0000 0.04500  0.56540  0.04500  Biso   1.000  H
  H2       1.0000 0.56540  0.04500  0.34460  Biso   1.000  H
  H3       1.0000 0.04500  0.34460  0.04500  Biso   1.000  H
  H4       1.0000 0.34460  0.04500  0.56540  Biso   1.000  H
  H5       1.0000 0.04500  0.04500  0.34460  Biso   1.000  H
  H6       1.0000 0.56540  0.34460  0.04500  Biso   1.000  H
  H7       1.0000 0.04500  0.04500  0.56540  Biso   1.000  H
  H8       1.0000 0.34460  0.56540  0.04500  Biso   1.000  H
  H9       1.0000 0.04500  0.34460  0.56540  Biso   1.000  H
  H10      1.0000 0.56540  0.04500  0.04500  Biso   1.000  H
  H11      1.0000 0.04500  0.56540  0.34460  Biso   1.000  H
  H12      1.0000 0.34460  0.04500  0.04500  Biso   1.000  H
  H13      1.0000 0.43460  0.95500  0.95500  Biso   1.000  H
  H14      1.0000 0.95500  0.43460  0.65540  Biso   1.000  H
  H15      1.0000 0.65540  0.95500  0.95500  Biso   1.000  H
  H16      1.0000 0.95500  0.65540  0.43460  Biso   1.000  H
  H17      1.0000 0.95500  0.95500  0.65540  Biso   1.000  H
  H18      1.0000 0.65540  0.43460  0.95500  Biso   1.000  H
  H19      1.0000 0.95500  0.95500  0.43460  Biso   1.000  H
  H20      1.0000 0.43460  0.65540  0.95500  Biso   1.000  H
  H21      1.0000 0.65540  0.95500  0.43460  Biso   1.000  H
  H22      1.0000 0.95500  0.43460  0.95500  Biso   1.000  H
  H23      1.0000 0.43460  0.95500  0.65540  Biso   1.000  H
  H24      1.0000 0.95500  0.65540  0.95500  Biso   1.000  H
  C1       1.0000 0.02670  0.53864  0.02670  Biso   1.000  C
  C2       1.0000 0.53864  0.02670  0.40796  Biso   1.000  C
  C3       1.0000 0.02670  0.40796  0.02670  Biso   1.000  C
  C4       1.0000 0.40796  0.02670  0.53864  Biso   1.000  C
  C5       1.0000 0.02670  0.02670  0.40796  Biso   1.000  C
  C6       1.0000 0.53864  0.40796  0.02670  Biso   1.000  C
  C7       1.0000 0.02670  0.02670  0.53864  Biso   1.000  C
  C8       1.0000 0.40796  0.53864  0.02670  Biso   1.000  C
  C9       1.0000 0.02670  0.40796  0.53864  Biso   1.000  C
  C10      1.0000 0.53864  0.02670  0.02670  Biso   1.000  C
  C11      1.0000 0.02670  0.53864  0.40796  Biso   1.000  C
  C12      1.0000 0.40796  0.02670  0.02670  Biso   1.000  C
  C13      1.0000 0.46136  0.97330  0.97330  Biso   1.000  C
  C14      1.0000 0.97330  0.46136  0.59204  Biso   1.000  C
  C15      1.0000 0.59204  0.97330  0.97330  Biso   1.000  C
  C16      1.0000 0.97330  0.59204  0.46136  Biso   1.000  C
  C17      1.0000 0.97330  0.97330  0.59204  Biso   1.000  C
  C18      1.0000 0.59204  0.46136  0.97330  Biso   1.000  C
  C19      1.0000 0.97330  0.97330  0.46136  Biso   1.000  C
  C20      1.0000 0.46136  0.59204  0.97330  Biso   1.000  C
  C21      1.0000 0.59204  0.97330  0.46136  Biso   1.000  C
  C22      1.0000 0.97330  0.46136  0.97330  Biso   1.000  C
  C23      1.0000 0.46136  0.97330  0.59204  Biso   1.000  C
  C24      1.0000 0.97330  0.59204  0.97330  Biso   1.000  C
  C25      1.0000 0.11148  0.38852  0.11148  Biso   1.000  C
  C26      1.0000 0.05372  0.44628  0.05372  Biso   1.000  C
  C27      1.0000 0.38852  0.11148  0.38852  Biso   1.000  C
  C28      1.0000 0.44628  0.05372  0.44628  Biso   1.000  C
  C29      1.0000 0.11148  0.11148  0.38852  Biso   1.000  C
  C30      1.0000 0.05372  0.05372  0.44628  Biso   1.000  C
  C31      1.0000 0.38852  0.38852  0.11148  Biso   1.000  C
  C32      1.0000 0.44628  0.44628  0.05372  Biso   1.000  C
  C33      1.0000 0.11148  0.38852  0.38852  Biso   1.000  C
  C34      1.0000 0.05372  0.44628  0.44628  Biso   1.000  C
  C35      1.0000 0.38852  0.11148  0.11148  Biso   1.000  C
  C36      1.0000 0.44628  0.05372  0.05372  Biso   1.000  C
  C37      1.0000 0.61148  0.88852  0.88852  Biso   1.000  C
  C38      1.0000 0.55372  0.94628  0.94628  Biso   1.000  C
  C39      1.0000 0.88852  0.61148  0.61148  Biso   1.000  C
  C40      1.0000 0.94628  0.55372  0.55372  Biso   1.000  C
  C41      1.0000 0.88852  0.88852  0.61148  Biso   1.000  C
  C42      1.0000 0.94628  0.94628  0.55372  Biso   1.000  C
  C43      1.0000 0.61148  0.61148  0.88852  Biso   1.000  C
  C44      1.0000 0.55372  0.55372  0.94628  Biso   1.000  C
  C45      1.0000 0.61148  0.88852  0.61148  Biso   1.000  C
  C46      1.0000 0.55372  0.94628  0.55372  Biso   1.000  C
  C47      1.0000 0.88852  0.61148  0.88852  Biso   1.000  C
  C48      1.0000 0.94628  0.55372  0.94628  Biso   1.000  C
  O1       1.0000 0.25000  0.25000  0.25000  Biso   1.000  O
  O2       1.0000 0.75000  0.75000  0.75000  Biso   1.000  O
  O3       1.0000 0.13373  0.42751  0.13373  Biso   1.000  O
  O4       1.0000 0.42751  0.13373  0.30503  Biso   1.000  O
  O5       1.0000 0.13373  0.30503  0.13373  Biso   1.000  O
  O6       1.0000 0.30503  0.13373  0.42751  Biso   1.000  O
  O7       1.0000 0.13373  0.13373  0.30503  Biso   1.000  O
  O8       1.0000 0.42751  0.30503  0.13373  Biso   1.000  O
  O9       1.0000 0.13373  0.13373  0.42751  Biso   1.000  O
  O10      1.0000 0.30503  0.42751  0.13373  Biso   1.000  O
  O11      1.0000 0.13373  0.30503  0.42751  Biso   1.000  O
  O12      1.0000 0.42751  0.13373  0.13373  Biso   1.000  O
  O13      1.0000 0.13373  0.42751  0.30503  Biso   1.000  O
  O14      1.0000 0.30503  0.13373  0.13373  Biso   1.000  O
  O15      1.0000 0.57249  0.86627  0.86627  Biso   1.000  O
  O16      1.0000 0.86627  0.57249  0.69497  Biso   1.000  O
  O17      1.0000 0.69497  0.86627  0.86627  Biso   1.000  O
  O18      1.0000 0.86627  0.69497  0.57249  Biso   1.000  O
  O19      1.0000 0.86627  0.86627  0.69497  Biso   1.000  O
  O20      1.0000 0.69497  0.57249  0.86627  Biso   1.000  O
  O21      1.0000 0.86627  0.86627  0.57249  Biso   1.000  O
  O22      1.0000 0.57249  0.69497  0.86627  Biso   1.000  O
  O23      1.0000 0.69497  0.86627  0.57249  Biso   1.000  O
  O24      1.0000 0.86627  0.57249  0.86627  Biso   1.000  O
  O25      1.0000 0.57249  0.86627  0.69497  Biso   1.000  O
  O26      1.0000 0.86627  0.69497  0.86627  Biso   1.000  O
  Zn9      1.0000 0.00000  0.00000  0.00000  Biso   1.000  Zn
  Zn10     1.0000 0.00000  1.00000  0.17382  Biso   1.000  Zn
  Zn11     1.0000 0.82618  1.00000  0.17382  Biso   1.000  Zn
  Zn12     1.0000 0.00000  0.82618  0.17382  Biso   1.000  Zn
  Zn13     1.0000 0.41182  0.41180  0.75944  Biso   1.000  Zn
  Zn14     1.0000 0.41182  0.41180  0.58562  Biso   1.000  Zn
  Zn15     1.0000 0.41182  0.58562  0.58562  Biso   1.000  Zn
  Zn16     1.0000 0.58564  0.41180  0.58562  Biso   1.000  Zn
  H25      1.0000 0.16202  0.16201  0.81500  Biso   1.000  H
  H26      1.0000 0.16202  0.16201  0.03222  Biso   1.000  H
  H27      1.0000 0.64118  0.85840  0.33583  Biso   1.000  H
  H28      1.0000 0.85841  0.64117  0.33583  Biso   1.000  H
  H29      1.0000 0.16202  0.64117  0.03222  Biso   1.000  H
  H30      1.0000 0.16202  0.85840  0.81500  Biso   1.000  H
  H31      1.0000 0.64118  0.16201  0.33583  Biso   1.000  H
  H32      1.0000 0.85841  0.16201  0.33583  Biso   1.000  H
  H33      1.0000 0.16202  0.85840  0.33583  Biso   1.000  H
  H34      1.0000 0.16202  0.64117  0.33583  Biso   1.000  H
  H35      1.0000 0.64118  0.16201  0.03222  Biso   1.000  H
  H36      1.0000 0.85841  0.16201  0.81500  Biso   1.000  H
  H37      1.0000 0.24979  0.24978  0.94444  Biso   1.000  H
  H38      1.0000 0.24979  0.24978  0.72722  Biso   1.000  H
  H39      1.0000 0.55341  0.77062  0.42361  Biso   1.000  H
  H40      1.0000 0.77063  0.55340  0.42361  Biso   1.000  H
  H41      1.0000 0.77063  0.24978  0.72722  Biso   1.000  H
  H42      1.0000 0.55341  0.24978  0.94444  Biso   1.000  H
  H43      1.0000 0.24979  0.77062  0.42361  Biso   1.000  H
  H44      1.0000 0.24979  0.55340  0.42361  Biso   1.000  H
  H45      1.0000 0.55341  0.24978  0.42361  Biso   1.000  H
  H46      1.0000 0.77063  0.24978  0.42361  Biso   1.000  H
  H47      1.0000 0.24979  0.77062  0.72722  Biso   1.000  H
  H48      1.0000 0.24979  0.55340  0.94444  Biso   1.000  H
  C49      1.0000 0.17958  0.17957  0.84173  Biso   1.000  C
  C50      1.0000 0.17958  0.17957  0.97038  Biso   1.000  C
  C51      1.0000 0.66791  0.79656  0.35339  Biso   1.000  C
  C52      1.0000 0.79657  0.66790  0.35339  Biso   1.000  C
  C53      1.0000 0.17958  0.66790  0.97038  Biso   1.000  C
  C54      1.0000 0.17958  0.79656  0.84173  Biso   1.000  C
  C55      1.0000 0.66791  0.17957  0.35339  Biso   1.000  C
  C56      1.0000 0.79657  0.17957  0.35339  Biso   1.000  C
  C57      1.0000 0.17958  0.79656  0.35339  Biso   1.000  C
  C58      1.0000 0.17958  0.66790  0.35339  Biso   1.000  C
  C59      1.0000 0.66791  0.17957  0.97038  Biso   1.000  C
  C60      1.0000 0.79657  0.17957  0.84173  Biso   1.000  C
  C61      1.0000 0.23224  0.23223  0.91771  Biso   1.000  C
  C62      1.0000 0.23224  0.23223  0.78906  Biso   1.000  C
  C63      1.0000 0.61525  0.74389  0.40605  Biso   1.000  C
  C64      1.0000 0.74390  0.61524  0.40605  Biso   1.000  C
  C65      1.0000 0.74390  0.23223  0.78906  Biso   1.000  C
  C66      1.0000 0.61525  0.23223  0.91771  Biso   1.000  C
  C67      1.0000 0.23224  0.74389  0.40605  Biso   1.000  C
  C68      1.0000 0.23224  0.61524  0.40605  Biso   1.000  C
  C69      1.0000 0.61525  0.23223  0.40605  Biso   1.000  C
  C70      1.0000 0.74390  0.23223  0.40605  Biso   1.000  C
  C71      1.0000 0.23224  0.74389  0.78906  Biso   1.000  C
  C72      1.0000 0.23224  0.61524  0.91771  Biso   1.000  C
  C73      1.0000 0.09480  0.09479  0.99212  Biso   1.000  C
  C74      1.0000 0.15235  0.15234  0.93457  Biso   1.000  C
  C75      1.0000 0.81831  0.81830  0.26861  Biso   1.000  C
  C76      1.0000 0.76076  0.76075  0.32616  Biso   1.000  C
  C77      1.0000 0.09480  0.81830  0.99212  Biso   1.000  C
  C78      1.0000 0.15235  0.76075  0.93457  Biso   1.000  C
  C79      1.0000 0.81831  0.09479  0.26861  Biso   1.000  C
  C80      1.0000 0.76076  0.15234  0.32616  Biso   1.000  C
  C81      1.0000 0.09480  0.81830  0.26861  Biso   1.000  C
  C82      1.0000 0.15235  0.76075  0.32616  Biso   1.000  C
  C83      1.0000 0.81831  0.09479  0.99212  Biso   1.000  C
  C84      1.0000 0.76076  0.15234  0.93457  Biso   1.000  C
  C85      1.0000 0.31702  0.31701  0.76732  Biso   1.000  C
  C86      1.0000 0.25947  0.25946  0.82487  Biso   1.000  C
  C87      1.0000 0.59351  0.59350  0.49083  Biso   1.000  C
  C88      1.0000 0.65106  0.65105  0.43328  Biso   1.000  C
  C89      1.0000 0.59351  0.31701  0.76732  Biso   1.000  C
  C90      1.0000 0.65106  0.25946  0.82487  Biso   1.000  C
  C91      1.0000 0.31702  0.59350  0.49083  Biso   1.000  C
  C92      1.0000 0.25947  0.65105  0.43328  Biso   1.000  C
  C93      1.0000 0.59351  0.31701  0.49083  Biso   1.000  C
  C94      1.0000 0.65106  0.25946  0.43328  Biso   1.000  C
  C95      1.0000 0.31702  0.59350  0.76732  Biso   1.000  C
  C96      1.0000 0.25947  0.65105  0.82487  Biso   1.000  C
  O27      1.0000 0.95655  0.95654  0.13036  Biso   1.000  O
  O28      1.0000 0.45526  0.45525  0.62908  Biso   1.000  O
  O29      1.0000 0.07230  0.07229  0.95405  Biso   1.000  O
  O30      1.0000 0.07230  0.07229  0.07518  Biso   1.000  O
  O31      1.0000 0.78024  0.90135  0.24611  Biso   1.000  O
  O32      1.0000 0.90136  0.78023  0.24611  Biso   1.000  O
  O33      1.0000 0.07230  0.78023  0.07518  Biso   1.000  O
  O34      1.0000 0.07230  0.90135  0.95405  Biso   1.000  O
  O35      1.0000 0.78024  0.07229  0.24611  Biso   1.000  O
  O36      1.0000 0.90136  0.07229  0.24611  Biso   1.000  O
  O37      1.0000 0.07230  0.90135  0.24611  Biso   1.000  O
  O38      1.0000 0.07230  0.78023  0.24611  Biso   1.000  O
  O39      1.0000 0.78024  0.07229  0.07518  Biso   1.000  O
  O40      1.0000 0.90136  0.07229  0.95405  Biso   1.000  O
  O41      1.0000 0.33951  0.33950  0.80539  Biso   1.000  O
  O42      1.0000 0.33951  0.33950  0.68426  Biso   1.000  O
  O43      1.0000 0.51045  0.63157  0.51332  Biso   1.000  O
  O44      1.0000 0.63158  0.51044  0.51332  Biso   1.000  O
  O45      1.0000 0.63158  0.33950  0.68426  Biso   1.000  O
  O46      1.0000 0.51045  0.33950  0.80539  Biso   1.000  O
  O47      1.0000 0.33951  0.63157  0.51332  Biso   1.000  O
  O48      1.0000 0.33951  0.51044  0.51332  Biso   1.000  O
  O49      1.0000 0.51045  0.33950  0.51332  Biso   1.000  O
  O50      1.0000 0.63158  0.33950  0.51332  Biso   1.000  O
  O51      1.0000 0.33951  0.63157  0.68426  Biso   1.000  O
