data_image0
_cell_length_a       18.283
_cell_length_b       18.283
_cell_length_c       18.283
_cell_angle_alpha    60
_cell_angle_beta     60
_cell_angle_gamma    60

_symmetry_space_group_name_H-M    "P 1"
_symmetry_int_tables_number       1

loop_
  _symmetry_equiv_pos_as_xyz
  'x, y, z'

loop_
  _atom_site_label
  _atom_site_occupancy
  _atom_site_fract_x
  _atom_site_fract_y
  _atom_site_fract_z
  _atom_site_thermal_displace_type
  _atom_site_B_iso_or_equiv
  _atom_site_type_symbol
  Zn1      1.0000 0.20657  0.38031  0.20656  Biso   1.000  Zn
  Zn2      1.0000 0.38032  0.20656  0.20656  Biso   1.000  Zn
  Zn3      1.0000 0.20657  0.20656  0.20656  Biso   1.000  Zn
  Zn4      1.0000 0.20657  0.20656  0.38031  Biso   1.000  Zn
  Zn5      1.0000 0.61968  0.79344  0.79344  Biso   1.000  Zn
  Zn6      1.0000 0.79343  0.61969  0.79344  Biso   1.000  Zn
  Zn7      1.0000 0.79343  0.79344  0.79344  Biso   1.000  Zn
  Zn8      1.0000 0.79343  0.79344  0.61969  Biso   1.000  Zn
  H1       1.0000 0.04500  0.56540  0.04500  Biso   1.000  H
  H2       1.0000 0.56540  0.04500  0.34460  Biso   1.000  H
  H3       1.0000 0.04500  0.34460  0.04500  Biso   1.000  H
  H4       1.0000 0.34460  0.04500  0.56540  Biso   1.000  H
  H5       1.0000 0.04500  0.04500  0.34460  Biso   1.000  H
  H6       1.0000 0.56540  0.34460  0.04500  Biso   1.000  H
  H7       1.0000 0.04500  0.04500  0.56540  Biso   1.000  H
  H8       1.0000 0.34460  0.56540  0.04500  Biso   1.000  H
  H9       1.0000 0.04500  0.34460  0.56540  Biso   1.000  H
  H10      1.0000 0.56540  0.04500  0.04500  Biso   1.000  H
  H11      1.0000 0.04500  0.56540  0.34460  Biso   1.000  H
  H12      1.0000 0.34460  0.04500  0.04500  Biso   1.000  H
  H13      1.0000 0.43460  0.95500  0.95500  Biso   1.000  H
  H14      1.0000 0.95500  0.43460  0.65540  Biso   1.000  H
  H15      1.0000 0.65540  0.95500  0.95500  Biso   1.000  H
  H16      1.0000 0.95500  0.65540  0.43460  Biso   1.000  H
  H17      1.0000 0.95500  0.95500  0.65540  Biso   1.000  H
  H18      1.0000 0.65540  0.43460  0.95500  Biso   1.000  H
  H19      1.0000 0.95500  0.95500  0.43460  Biso   1.000  H
  H20      1.0000 0.43460  0.65540  0.95500  Biso   1.000  H
  H21      1.0000 0.65540  0.95500  0.43460  Biso   1.000  H
  H22      1.0000 0.95500  0.43460  0.95500  Biso   1.000  H
  H23      1.0000 0.43460  0.95500  0.65540  Biso   1.000  H
  H24      1.0000 0.95500  0.65540  0.95500  Biso   1.000  H
  C1       1.0000 0.02670  0.53864  0.02670  Biso   1.000  C
  C2       1.0000 0.53864  0.02670  0.40796  Biso   1.000  C
  C3       1.0000 0.02670  0.40796  0.02670  Biso   1.000  C
  C4       1.0000 0.40796  0.02670  0.53864  Biso   1.000  C
  C5       1.0000 0.02670  0.02670  0.40796  Biso   1.000  C
  C6       1.0000 0.53864  0.40796  0.02670  Biso   1.000  C
  C7       1.0000 0.02670  0.02670  0.53864  Biso   1.000  C
  C8       1.0000 0.40796  0.53864  0.02670  Biso   1.000  C
  C9       1.0000 0.02670  0.40796  0.53864  Biso   1.000  C
  C10      1.0000 0.53864  0.02670  0.02670  Biso   1.000  C
  C11      1.0000 0.02670  0.53864  0.40796  Biso   1.000  C
  C12      1.0000 0.40796  0.02670  0.02670  Biso   1.000  C
  C13      1.0000 0.46136  0.97330  0.97330  Biso   1.000  C
  C14      1.0000 0.97330  0.46136  0.59204  Biso   1.000  C
  C15      1.0000 0.59204  0.97330  0.97330  Biso   1.000  C
  C16      1.0000 0.97330  0.59204  0.46136  Biso   1.000  C
  C17      1.0000 0.97330  0.97330  0.59204  Biso   1.000  C
  C18      1.0000 0.59204  0.46136  0.97330  Biso   1.000  C
  C19      1.0000 0.97330  0.97330  0.46136  Biso   1.000  C
  C20      1.0000 0.46136  0.59204  0.97330  Biso   1.000  C
  C21      1.0000 0.59204  0.97330  0.46136  Biso   1.000  C
  C22      1.0000 0.97330  0.46136  0.97330  Biso   1.000  C
  C23      1.0000 0.46136  0.97330  0.59204  Biso   1.000  C
  C24      1.0000 0.97330  0.59204  0.97330  Biso   1.000  C
  C25      1.0000 0.11148  0.38852  0.11148  Biso   1.000  C
  C26      1.0000 0.05372  0.44628  0.05372  Biso   1.000  C
  C27      1.0000 0.38852  0.11148  0.38852  Biso   1.000  C
  C28      1.0000 0.44628  0.05372  0.44628  Biso   1.000  C
  C29      1.0000 0.11148  0.11148  0.38852  Biso   1.000  C
  C30      1.0000 0.05372  0.05372  0.44628  Biso   1.000  C
  C31      1.0000 0.38852  0.38852  0.11148  Biso   1.000  C
  C32      1.0000 0.44628  0.44628  0.05372  Biso   1.000  C
  C33      1.0000 0.11148  0.38852  0.38852  Biso   1.000  C
  C34      1.0000 0.05372  0.44628  0.44628  Biso   1.000  C
  C35      1.0000 0.38852  0.11148  0.11148  Biso   1.000  C
  C36      1.0000 0.44628  0.05372  0.05372  Biso   1.000  C
  C37      1.0000 0.61148  0.88852  0.88852  Biso   1.000  C
  C38      1.0000 0.55372  0.94628  0.94628  Biso   1.000  C
  C39      1.0000 0.88852  0.61148  0.61148  Biso   1.000  C
  C40      1.0000 0.94628  0.55372  0.55372  Biso   1.000  C
  C41      1.0000 0.88852  0.88852  0.61148  Biso   1.000  C
  C42      1.0000 0.94628  0.94628  0.55372  Biso   1.000  C
  C43      1.0000 0.61148  0.61148  0.88852  Biso   1.000  C
  C44      1.0000 0.55372  0.55372  0.94628  Biso   1.000  C
  C45      1.0000 0.61148  0.88852  0.61148  Biso   1.000  C
  C46      1.0000 0.55372  0.94628  0.55372  Biso   1.000  C
  C47      1.0000 0.88852  0.61148  0.88852  Biso   1.000  C
  C48      1.0000 0.94628  0.55372  0.94628  Biso   1.000  C
  O1       1.0000 0.25000  0.25000  0.25000  Biso   1.000  O
  O2       1.0000 0.75000  0.75000  0.75000  Biso   1.000  O
  O3       1.0000 0.13373  0.42751  0.13373  Biso   1.000  O
  O4       1.0000 0.42751  0.13373  0.30503  Biso   1.000  O
  O5       1.0000 0.13373  0.30503  0.13373  Biso   1.000  O
  O6       1.0000 0.30503  0.13373  0.42751  Biso   1.000  O
  O7       1.0000 0.13373  0.13373  0.30503  Biso   1.000  O
  O8       1.0000 0.42751  0.30503  0.13373  Biso   1.000  O
  O9       1.0000 0.13373  0.13373  0.42751  Biso   1.000  O
  O10      1.0000 0.30503  0.42751  0.13373  Biso   1.000  O
  O11      1.0000 0.13373  0.30503  0.42751  Biso   1.000  O
  O12      1.0000 0.42751  0.13373  0.13373  Biso   1.000  O
  O13      1.0000 0.13373  0.42751  0.30503  Biso   1.000  O
  O14      1.0000 0.30503  0.13373  0.13373  Biso   1.000  O
  O15      1.0000 0.57249  0.86627  0.86627  Biso   1.000  O
  O16      1.0000 0.86627  0.57249  0.69497  Biso   1.000  O
  O17      1.0000 0.69497  0.86627  0.86627  Biso   1.000  O
  O18      1.0000 0.86627  0.69497  0.57249  Biso   1.000  O
  O19      1.0000 0.86627  0.86627  0.69497  Biso   1.000  O
  O20      1.0000 0.69497  0.57249  0.86627  Biso   1.000  O
  O21      1.0000 0.86627  0.86627  0.57249  Biso   1.000  O
  O22      1.0000 0.57249  0.69497  0.86627  Biso   1.000  O
  O23      1.0000 0.69497  0.86627  0.57249  Biso   1.000  O
  O24      1.0000 0.86627  0.57249  0.86627  Biso   1.000  O
  O25      1.0000 0.57249  0.86627  0.69497  Biso   1.000  O
  O26      1.0000 0.86627  0.69497  0.86627  Biso   1.000  O
  Zn9      1.0000 0.00000  0.00000  0.00000  Biso   1.000  Zn
  Zn10     1.0000 1.00000  0.00000  0.17384  Biso   1.000  Zn
  Zn11     1.0000 0.82616  0.00000  0.17384  Biso   1.000  Zn
  Zn12     1.0000 1.00000  0.82616  0.17384  Biso   1.000  Zn
  Zn13     1.0000 0.41137  0.41137  0.75906  Biso   1.000  Zn
  Zn14     1.0000 0.41137  0.41137  0.58521  Biso   1.000  Zn
  Zn15     1.0000 0.41137  0.58521  0.58521  Biso   1.000  Zn
  Zn16     1.0000 0.58521  0.41137  0.58521  Biso   1.000  Zn
  H25      1.0000 0.16164  0.16164  0.81503  Biso   1.000  H
  H26      1.0000 0.16164  0.16164  0.03212  Biso   1.000  H
  H27      1.0000 0.64119  0.85828  0.33548  Biso   1.000  H
  H28      1.0000 0.85828  0.64119  0.33548  Biso   1.000  H
  H29      1.0000 0.16164  0.64119  0.03212  Biso   1.000  H
  H30      1.0000 0.16164  0.85828  0.81503  Biso   1.000  H
  H31      1.0000 0.64119  0.16164  0.33548  Biso   1.000  H
  H32      1.0000 0.85828  0.16164  0.33548  Biso   1.000  H
  H33      1.0000 0.16164  0.85828  0.33548  Biso   1.000  H
  H34      1.0000 0.16164  0.64119  0.33548  Biso   1.000  H
  H35      1.0000 0.64119  0.16164  0.03212  Biso   1.000  H
  H36      1.0000 0.85828  0.16164  0.81503  Biso   1.000  H
  H37      1.0000 0.24973  0.24973  0.94402  Biso   1.000  H
  H38      1.0000 0.24973  0.24973  0.72694  Biso   1.000  H
  H39      1.0000 0.55309  0.77018  0.42358  Biso   1.000  H
  H40      1.0000 0.77018  0.55309  0.42358  Biso   1.000  H
  H41      1.0000 0.77018  0.24973  0.72694  Biso   1.000  H
  H42      1.0000 0.55309  0.24973  0.94402  Biso   1.000  H
  H43      1.0000 0.24973  0.77018  0.42358  Biso   1.000  H
  H44      1.0000 0.24973  0.55309  0.42358  Biso   1.000  H
  H45      1.0000 0.55309  0.24973  0.42358  Biso   1.000  H
  H46      1.0000 0.77018  0.24973  0.42358  Biso   1.000  H
  H47      1.0000 0.24973  0.77018  0.72694  Biso   1.000  H
  H48      1.0000 0.24973  0.55309  0.94402  Biso   1.000  H
  C49      1.0000 0.17928  0.17928  0.84184  Biso   1.000  C
  C50      1.0000 0.17928  0.17928  0.97003  Biso   1.000  C
  C51      1.0000 0.66800  0.79619  0.35312  Biso   1.000  C
  C52      1.0000 0.79619  0.66800  0.35312  Biso   1.000  C
  C53      1.0000 0.17928  0.66800  0.97003  Biso   1.000  C
  C54      1.0000 0.17928  0.79619  0.84184  Biso   1.000  C
  C55      1.0000 0.66800  0.17928  0.35312  Biso   1.000  C
  C56      1.0000 0.79619  0.17928  0.35312  Biso   1.000  C
  C57      1.0000 0.17928  0.79619  0.35312  Biso   1.000  C
  C58      1.0000 0.17928  0.66800  0.35312  Biso   1.000  C
  C59      1.0000 0.66800  0.17928  0.97003  Biso   1.000  C
  C60      1.0000 0.79619  0.17928  0.84184  Biso   1.000  C
  C61      1.0000 0.23209  0.23209  0.91721  Biso   1.000  C
  C62      1.0000 0.23209  0.23209  0.78902  Biso   1.000  C
  C63      1.0000 0.61518  0.74337  0.40594  Biso   1.000  C
  C64      1.0000 0.74337  0.61518  0.40594  Biso   1.000  C
  C65      1.0000 0.74337  0.23209  0.78902  Biso   1.000  C
  C66      1.0000 0.61518  0.23209  0.91721  Biso   1.000  C
  C67      1.0000 0.23209  0.74337  0.40594  Biso   1.000  C
  C68      1.0000 0.23209  0.61518  0.40594  Biso   1.000  C
  C69      1.0000 0.61518  0.23209  0.40594  Biso   1.000  C
  C70      1.0000 0.74337  0.23209  0.40594  Biso   1.000  C
  C71      1.0000 0.23209  0.74337  0.78902  Biso   1.000  C
  C72      1.0000 0.23209  0.61518  0.91721  Biso   1.000  C
  C73      1.0000 0.09457  0.09457  0.99236  Biso   1.000  C
  C74      1.0000 0.15247  0.15247  0.93445  Biso   1.000  C
  C75      1.0000 0.81851  0.81851  0.26841  Biso   1.000  C
  C76      1.0000 0.76061  0.76061  0.32631  Biso   1.000  C
  C77      1.0000 0.09457  0.81851  0.99236  Biso   1.000  C
  C78      1.0000 0.15247  0.76061  0.93445  Biso   1.000  C
  C79      1.0000 0.81851  0.09457  0.26841  Biso   1.000  C
  C80      1.0000 0.76061  0.15247  0.32631  Biso   1.000  C
  C81      1.0000 0.09457  0.81851  0.26841  Biso   1.000  C
  C82      1.0000 0.15247  0.76061  0.32631  Biso   1.000  C
  C83      1.0000 0.81851  0.09457  0.99236  Biso   1.000  C
  C84      1.0000 0.76061  0.15247  0.93445  Biso   1.000  C
  C85      1.0000 0.31680  0.31680  0.76670  Biso   1.000  C
  C86      1.0000 0.25890  0.25890  0.82460  Biso   1.000  C
  C87      1.0000 0.59286  0.59286  0.49065  Biso   1.000  C
  C88      1.0000 0.65076  0.65076  0.43275  Biso   1.000  C
  C89      1.0000 0.59286  0.31680  0.76670  Biso   1.000  C
  C90      1.0000 0.65076  0.25890  0.82460  Biso   1.000  C
  C91      1.0000 0.31680  0.59286  0.49065  Biso   1.000  C
  C92      1.0000 0.25890  0.65076  0.43275  Biso   1.000  C
  C93      1.0000 0.59286  0.31680  0.49065  Biso   1.000  C
  C94      1.0000 0.65076  0.25890  0.43275  Biso   1.000  C
  C95      1.0000 0.31680  0.59286  0.76670  Biso   1.000  C
  C96      1.0000 0.25890  0.65076  0.82460  Biso   1.000  C
  O27      1.0000 0.95654  0.95654  0.13038  Biso   1.000  O
  O28      1.0000 0.45483  0.45483  0.62867  Biso   1.000  O
  O29      1.0000 0.07223  0.07223  0.95450  Biso   1.000  O
  O30      1.0000 0.07223  0.07223  0.07488  Biso   1.000  O
  O31      1.0000 0.78065  0.90104  0.24608  Biso   1.000  O
  O32      1.0000 0.90104  0.78065  0.24608  Biso   1.000  O
  O33      1.0000 0.07223  0.78065  0.07488  Biso   1.000  O
  O34      1.0000 0.07223  0.90104  0.95450  Biso   1.000  O
  O35      1.0000 0.78065  0.07223  0.24608  Biso   1.000  O
  O36      1.0000 0.90104  0.07223  0.24608  Biso   1.000  O
  O37      1.0000 0.07223  0.90104  0.24608  Biso   1.000  O
  O38      1.0000 0.07223  0.78065  0.24608  Biso   1.000  O
  O39      1.0000 0.78065  0.07223  0.07488  Biso   1.000  O
  O40      1.0000 0.90104  0.07223  0.95450  Biso   1.000  O
  O41      1.0000 0.33914  0.33914  0.80456  Biso   1.000  O
  O42      1.0000 0.33914  0.33914  0.68417  Biso   1.000  O
  O43      1.0000 0.51033  0.63072  0.51298  Biso   1.000  O
  O44      1.0000 0.63072  0.51033  0.51298  Biso   1.000  O
  O45      1.0000 0.63072  0.33914  0.68417  Biso   1.000  O
  O46      1.0000 0.51033  0.33914  0.80456  Biso   1.000  O
  O47      1.0000 0.33914  0.63072  0.51298  Biso   1.000  O
  O48      1.0000 0.33914  0.51033  0.51298  Biso   1.000  O
  O49      1.0000 0.51033  0.33914  0.51298  Biso   1.000  O
  O50      1.0000 0.63072  0.33914  0.51298  Biso   1.000  O
  O51      1.0000 0.33914  0.63072  0.68417  Biso   1.000  O
