data_image0
_cell_length_a       18.2943
_cell_length_b       18.2943
_cell_length_c       18.2943
_cell_angle_alpha    60
_cell_angle_beta     60
_cell_angle_gamma    60

_symmetry_space_group_name_H-M    "P 1"
_symmetry_int_tables_number       1

loop_
  _symmetry_equiv_pos_as_xyz
  'x, y, z'

loop_
  _atom_site_label
  _atom_site_occupancy
  _atom_site_fract_x
  _atom_site_fract_y
  _atom_site_fract_z
  _atom_site_thermal_displace_type
  _atom_site_B_iso_or_equiv
  _atom_site_type_symbol
  Zn1      1.0000 0.20660  0.38020  0.20660  Biso   1.000  Zn
  Zn2      1.0000 0.38020  0.20660  0.20660  Biso   1.000  Zn
  Zn3      1.0000 0.20660  0.20660  0.20660  Biso   1.000  Zn
  Zn4      1.0000 0.20660  0.20660  0.38020  Biso   1.000  Zn
  Zn5      1.0000 0.61980  0.79340  0.79340  Biso   1.000  Zn
  Zn6      1.0000 0.79340  0.61980  0.79340  Biso   1.000  Zn
  Zn7      1.0000 0.79340  0.79340  0.79340  Biso   1.000  Zn
  Zn8      1.0000 0.79340  0.79340  0.61980  Biso   1.000  Zn
  H1       1.0000 0.04510  0.56550  0.04510  Biso   1.000  H
  H2       1.0000 0.56550  0.04510  0.34430  Biso   1.000  H
  H3       1.0000 0.04510  0.34430  0.04510  Biso   1.000  H
  H4       1.0000 0.34430  0.04510  0.56550  Biso   1.000  H
  H5       1.0000 0.04510  0.04510  0.34430  Biso   1.000  H
  H6       1.0000 0.56550  0.34430  0.04510  Biso   1.000  H
  H7       1.0000 0.04510  0.04510  0.56550  Biso   1.000  H
  H8       1.0000 0.34430  0.56550  0.04510  Biso   1.000  H
  H9       1.0000 0.04510  0.34430  0.56550  Biso   1.000  H
  H10      1.0000 0.56550  0.04510  0.04510  Biso   1.000  H
  H11      1.0000 0.04510  0.56550  0.34430  Biso   1.000  H
  H12      1.0000 0.34430  0.04510  0.04510  Biso   1.000  H
  H13      1.0000 0.43450  0.95490  0.95490  Biso   1.000  H
  H14      1.0000 0.95490  0.43450  0.65570  Biso   1.000  H
  H15      1.0000 0.65570  0.95490  0.95490  Biso   1.000  H
  H16      1.0000 0.95490  0.65570  0.43450  Biso   1.000  H
  H17      1.0000 0.95490  0.95490  0.65570  Biso   1.000  H
  H18      1.0000 0.65570  0.43450  0.95490  Biso   1.000  H
  H19      1.0000 0.95490  0.95490  0.43450  Biso   1.000  H
  H20      1.0000 0.43450  0.65570  0.95490  Biso   1.000  H
  H21      1.0000 0.65570  0.95490  0.43450  Biso   1.000  H
  H22      1.0000 0.95490  0.43450  0.95490  Biso   1.000  H
  H23      1.0000 0.43450  0.95490  0.65570  Biso   1.000  H
  H24      1.0000 0.95490  0.65570  0.95490  Biso   1.000  H
  C1       1.0000 0.02675  0.53889  0.02675  Biso   1.000  C
  C2       1.0000 0.53889  0.02675  0.40761  Biso   1.000  C
  C3       1.0000 0.02675  0.40761  0.02675  Biso   1.000  C
  C4       1.0000 0.40761  0.02675  0.53889  Biso   1.000  C
  C5       1.0000 0.02675  0.02675  0.40761  Biso   1.000  C
  C6       1.0000 0.53889  0.40761  0.02675  Biso   1.000  C
  C7       1.0000 0.02675  0.02675  0.53889  Biso   1.000  C
  C8       1.0000 0.40761  0.53889  0.02675  Biso   1.000  C
  C9       1.0000 0.02675  0.40761  0.53889  Biso   1.000  C
  C10      1.0000 0.53889  0.02675  0.02675  Biso   1.000  C
  C11      1.0000 0.02675  0.53889  0.40761  Biso   1.000  C
  C12      1.0000 0.40761  0.02675  0.02675  Biso   1.000  C
  C13      1.0000 0.46111  0.97325  0.97325  Biso   1.000  C
  C14      1.0000 0.97325  0.46111  0.59239  Biso   1.000  C
  C15      1.0000 0.59239  0.97325  0.97325  Biso   1.000  C
  C16      1.0000 0.97325  0.59239  0.46111  Biso   1.000  C
  C17      1.0000 0.97325  0.97325  0.59239  Biso   1.000  C
  C18      1.0000 0.59239  0.46111  0.97325  Biso   1.000  C
  C19      1.0000 0.97325  0.97325  0.46111  Biso   1.000  C
  C20      1.0000 0.46111  0.59239  0.97325  Biso   1.000  C
  C21      1.0000 0.59239  0.97325  0.46111  Biso   1.000  C
  C22      1.0000 0.97325  0.46111  0.97325  Biso   1.000  C
  C23      1.0000 0.46111  0.97325  0.59239  Biso   1.000  C
  C24      1.0000 0.97325  0.59239  0.97325  Biso   1.000  C
  C25      1.0000 0.11147  0.38853  0.11147  Biso   1.000  C
  C26      1.0000 0.05374  0.44626  0.05374  Biso   1.000  C
  C27      1.0000 0.38853  0.11147  0.38853  Biso   1.000  C
  C28      1.0000 0.44626  0.05374  0.44626  Biso   1.000  C
  C29      1.0000 0.11147  0.11147  0.38853  Biso   1.000  C
  C30      1.0000 0.05374  0.05374  0.44626  Biso   1.000  C
  C31      1.0000 0.38853  0.38853  0.11147  Biso   1.000  C
  C32      1.0000 0.44626  0.44626  0.05374  Biso   1.000  C
  C33      1.0000 0.11147  0.38853  0.38853  Biso   1.000  C
  C34      1.0000 0.05374  0.44626  0.44626  Biso   1.000  C
  C35      1.0000 0.38853  0.11147  0.11147  Biso   1.000  C
  C36      1.0000 0.44626  0.05374  0.05374  Biso   1.000  C
  C37      1.0000 0.61147  0.88853  0.88853  Biso   1.000  C
  C38      1.0000 0.55374  0.94626  0.94626  Biso   1.000  C
  C39      1.0000 0.88853  0.61147  0.61147  Biso   1.000  C
  C40      1.0000 0.94626  0.55374  0.55374  Biso   1.000  C
  C41      1.0000 0.88853  0.88853  0.61147  Biso   1.000  C
  C42      1.0000 0.94626  0.94626  0.55374  Biso   1.000  C
  C43      1.0000 0.61147  0.61147  0.88853  Biso   1.000  C
  C44      1.0000 0.55374  0.55374  0.94626  Biso   1.000  C
  C45      1.0000 0.61147  0.88853  0.61147  Biso   1.000  C
  C46      1.0000 0.55374  0.94626  0.55374  Biso   1.000  C
  C47      1.0000 0.88853  0.61147  0.88853  Biso   1.000  C
  C48      1.0000 0.94626  0.55374  0.94626  Biso   1.000  C
  O1       1.0000 0.25000  0.25000  0.25000  Biso   1.000  O
  O2       1.0000 0.75000  0.75000  0.75000  Biso   1.000  O
  O3       1.0000 0.13372  0.42764  0.13372  Biso   1.000  O
  O4       1.0000 0.42764  0.13372  0.30492  Biso   1.000  O
  O5       1.0000 0.13372  0.30492  0.13372  Biso   1.000  O
  O6       1.0000 0.30492  0.13372  0.42764  Biso   1.000  O
  O7       1.0000 0.13372  0.13372  0.30492  Biso   1.000  O
  O8       1.0000 0.42764  0.30492  0.13372  Biso   1.000  O
  O9       1.0000 0.13372  0.13372  0.42764  Biso   1.000  O
  O10      1.0000 0.30492  0.42764  0.13372  Biso   1.000  O
  O11      1.0000 0.13372  0.30492  0.42764  Biso   1.000  O
  O12      1.0000 0.42764  0.13372  0.13372  Biso   1.000  O
  O13      1.0000 0.13372  0.42764  0.30492  Biso   1.000  O
  O14      1.0000 0.30492  0.13372  0.13372  Biso   1.000  O
  O15      1.0000 0.57236  0.86628  0.86628  Biso   1.000  O
  O16      1.0000 0.86628  0.57236  0.69508  Biso   1.000  O
  O17      1.0000 0.69508  0.86628  0.86628  Biso   1.000  O
  O18      1.0000 0.86628  0.69508  0.57236  Biso   1.000  O
  O19      1.0000 0.86628  0.86628  0.69508  Biso   1.000  O
  O20      1.0000 0.69508  0.57236  0.86628  Biso   1.000  O
  O21      1.0000 0.86628  0.86628  0.57236  Biso   1.000  O
  O22      1.0000 0.57236  0.69508  0.86628  Biso   1.000  O
  O23      1.0000 0.69508  0.86628  0.57236  Biso   1.000  O
  O24      1.0000 0.86628  0.57236  0.86628  Biso   1.000  O
  O25      1.0000 0.57236  0.86628  0.69508  Biso   1.000  O
  O26      1.0000 0.86628  0.69508  0.86628  Biso   1.000  O
  Zn9      1.0000 0.00000  0.00000  0.00000  Biso   1.000  Zn
  Zn10     1.0000 0.41392  0.58607  0.41395  Biso   1.000  Zn
  Zn11     1.0000 0.41391  0.41212  0.41395  Biso   1.000  Zn
  Zn12     1.0000 1.00000  0.82604  0.00000  Biso   1.000  Zn
  Zn13     1.0000 0.99974  0.00020  0.82590  Biso   1.000  Zn
  Zn14     1.0000 0.82569  0.00007  0.00021  Biso   1.000  Zn
  Zn15     1.0000 0.41417  0.41192  0.58804  Biso   1.000  Zn
  Zn16     1.0000 0.58822  0.41205  0.41374  Biso   1.000  Zn
  H25      1.0000 0.16353  0.64124  0.85893  Biso   1.000  H
  H26      1.0000 0.15591  0.85916  0.64551  Biso   1.000  H
  H27      1.0000 0.86334  0.64322  0.16075  Biso   1.000  H
  H28      1.0000 0.64043  0.86034  0.16603  Biso   1.000  H
  H29      1.0000 0.16524  0.85974  0.15895  Biso   1.000  H
  H30      1.0000 0.25039  0.24976  0.55502  Biso   1.000  H
  H31      1.0000 0.25800  0.24666  0.76843  Biso   1.000  H
  H32      1.0000 0.55058  0.25337  0.25320  Biso   1.000  H
  H33      1.0000 0.77348  0.25287  0.24791  Biso   1.000  H
  H34      1.0000 0.24867  0.76999  0.25500  Biso   1.000  H
  H35      1.0000 0.25039  0.77087  0.55502  Biso   1.000  H
  H36      1.0000 0.25800  0.55295  0.76843  Biso   1.000  H
  H37      1.0000 0.55057  0.76889  0.25320  Biso   1.000  H
  H38      1.0000 0.77348  0.55178  0.24791  Biso   1.000  H
  H39      1.0000 0.24868  0.55238  0.25500  Biso   1.000  H
  H40      1.0000 0.16353  0.16235  0.85893  Biso   1.000  H
  H41      1.0000 0.15591  0.16545  0.64551  Biso   1.000  H
  H42      1.0000 0.86334  0.15874  0.16075  Biso   1.000  H
  H43      1.0000 0.64043  0.15924  0.16603  Biso   1.000  H
  H44      1.0000 0.16524  0.64212  0.15895  Biso   1.000  H
  H45      1.0000 0.64431  0.16105  0.85963  Biso   1.000  H
  H46      1.0000 0.85691  0.16376  0.64162  Biso   1.000  H
  H47      1.0000 0.76960  0.25106  0.55432  Biso   1.000  H
  H48      1.0000 0.55701  0.24836  0.77233  Biso   1.000  H
  C49      1.0000 0.09486  0.81635  0.82032  Biso   1.000  C
  C50      1.0000 0.15332  0.75949  0.76005  Biso   1.000  C
  C51      1.0000 0.18238  0.66768  0.79677  Biso   1.000  C
  C52      1.0000 0.17686  0.79711  0.67105  Biso   1.000  C
  C53      1.0000 0.81812  0.81754  0.09629  Biso   1.000  C
  C54      1.0000 0.76115  0.76196  0.15306  Biso   1.000  C
  C55      1.0000 0.80139  0.66886  0.17821  Biso   1.000  C
  C56      1.0000 0.66797  0.79848  0.18160  Biso   1.000  C
  C57      1.0000 0.18150  0.79778  0.17841  Biso   1.000  C
  C58      1.0000 0.31905  0.31761  0.59363  Biso   1.000  C
  C59      1.0000 0.26059  0.25894  0.65389  Biso   1.000  C
  C60      1.0000 0.23153  0.23290  0.61718  Biso   1.000  C
  C61      1.0000 0.23705  0.23110  0.74289  Biso   1.000  C
  C62      1.0000 0.59580  0.31802  0.31765  Biso   1.000  C
  C63      1.0000 0.65276  0.26225  0.26088  Biso   1.000  C
  C64      1.0000 0.61253  0.23452  0.23574  Biso   1.000  C
  C65      1.0000 0.74594  0.23412  0.23235  Biso   1.000  C
  C66      1.0000 0.23241  0.74375  0.23554  Biso   1.000  C
  C67      1.0000 0.31905  0.59576  0.59363  Biso   1.000  C
  C68      1.0000 0.26059  0.65263  0.65389  Biso   1.000  C
  C69      1.0000 0.23153  0.74443  0.61718  Biso   1.000  C
  C70      1.0000 0.23705  0.61501  0.74289  Biso   1.000  C
  C71      1.0000 0.59580  0.59458  0.31765  Biso   1.000  C
  C72      1.0000 0.65276  0.65015  0.26088  Biso   1.000  C
  C73      1.0000 0.61253  0.74325  0.23574  Biso   1.000  C
  C74      1.0000 0.74595  0.61364  0.23235  Biso   1.000  C
  C75      1.0000 0.23242  0.61434  0.23554  Biso   1.000  C
  C76      1.0000 0.09486  0.09451  0.82032  Biso   1.000  C
  C77      1.0000 0.15332  0.15318  0.76005  Biso   1.000  C
  C78      1.0000 0.18238  0.17922  0.79677  Biso   1.000  C
  C79      1.0000 0.17686  0.18102  0.67105  Biso   1.000  C
  C80      1.0000 0.81812  0.09410  0.09629  Biso   1.000  C
  C81      1.0000 0.76115  0.14986  0.15306  Biso   1.000  C
  C82      1.0000 0.80138  0.17760  0.17821  Biso   1.000  C
  C83      1.0000 0.66797  0.17800  0.18160  Biso   1.000  C
  C84      1.0000 0.18150  0.66836  0.17841  Biso   1.000  C
  C85      1.0000 0.81990  0.09621  0.81373  Biso   1.000  C
  C86      1.0000 0.76083  0.15218  0.76085  Biso   1.000  C
  C87      1.0000 0.67085  0.17872  0.79777  Biso   1.000  C
  C88      1.0000 0.79475  0.18112  0.66906  Biso   1.000  C
  C89      1.0000 0.09407  0.82043  0.09110  Biso   1.000  C
  C90      1.0000 0.15234  0.76037  0.15296  Biso   1.000  C
  C91      1.0000 0.59401  0.31591  0.60021  Biso   1.000  C
  C92      1.0000 0.65308  0.25994  0.65309  Biso   1.000  C
  C93      1.0000 0.74307  0.23340  0.61618  Biso   1.000  C
  C94      1.0000 0.61916  0.23100  0.74489  Biso   1.000  C
  C95      1.0000 0.31984  0.59168  0.32284  Biso   1.000  C
  C96      1.0000 0.26157  0.65175  0.26098  Biso   1.000  C
  O27      1.0000 0.07281  0.90186  0.77691  Biso   1.000  O
  O28      1.0000 0.07521  0.77594  0.90283  Biso   1.000  O
  O29      1.0000 0.77731  0.90294  0.07105  Biso   1.000  O
  O30      1.0000 0.90222  0.77743  0.07384  Biso   1.000  O
  O31      1.0000 0.07312  0.90324  0.07155  Biso   1.000  O
  O32      1.0000 0.34110  0.33766  0.63703  Biso   1.000  O
  O33      1.0000 0.33870  0.34006  0.51112  Biso   1.000  O
  O34      1.0000 0.63660  0.33737  0.34290  Biso   1.000  O
  O35      1.0000 0.51169  0.33957  0.34010  Biso   1.000  O
  O36      1.0000 0.34079  0.63398  0.34240  Biso   1.000  O
  O37      1.0000 0.34111  0.51026  0.63703  Biso   1.000  O
  O38      1.0000 0.33871  0.63617  0.51112  Biso   1.000  O
  O39      1.0000 0.63660  0.50917  0.34290  Biso   1.000  O
  O40      1.0000 0.51169  0.63468  0.34010  Biso   1.000  O
  O41      1.0000 0.34079  0.50887  0.34240  Biso   1.000  O
  O42      1.0000 0.07281  0.07446  0.77691  Biso   1.000  O
  O43      1.0000 0.07521  0.07206  0.90283  Biso   1.000  O
  O44      1.0000 0.77731  0.07474  0.07105  Biso   1.000  O
  O45      1.0000 0.90222  0.07255  0.07384  Biso   1.000  O
  O46      1.0000 0.07312  0.77813  0.07155  Biso   1.000  O
  O47      1.0000 0.95639  0.95672  0.95621  Biso   1.000  O
  O48      1.0000 0.90201  0.07306  0.77791  Biso   1.000  O
  O49      1.0000 0.77860  0.07465  0.89814  Biso   1.000  O
  O50      1.0000 0.45753  0.45539  0.45774  Biso   1.000  O
  O51      1.0000 0.51191  0.33905  0.63603  Biso   1.000  O
