data_image0
_cell_length_a       18.2943
_cell_length_b       18.2943
_cell_length_c       18.2943
_cell_angle_alpha    60
_cell_angle_beta     60
_cell_angle_gamma    60

_symmetry_space_group_name_H-M    "P 1"
_symmetry_int_tables_number       1

loop_
  _symmetry_equiv_pos_as_xyz
  'x, y, z'

loop_
  _atom_site_label
  _atom_site_occupancy
  _atom_site_fract_x
  _atom_site_fract_y
  _atom_site_fract_z
  _atom_site_thermal_displace_type
  _atom_site_B_iso_or_equiv
  _atom_site_type_symbol
  C1       1.0000 0.20660  0.38020  0.20660  Biso   1.000  C
  C2       1.0000 0.38020  0.20660  0.20660  Biso   1.000  C
  C3       1.0000 0.20660  0.20660  0.20660  Biso   1.000  C
  C4       1.0000 0.20660  0.20660  0.38020  Biso   1.000  C
  C5       1.0000 0.61980  0.79340  0.79340  Biso   1.000  C
  C6       1.0000 0.79340  0.61980  0.79340  Biso   1.000  C
  C7       1.0000 0.79340  0.79340  0.79340  Biso   1.000  C
  C8       1.0000 0.79340  0.79340  0.61980  Biso   1.000  C
  C9       1.0000 0.04510  0.56550  0.04510  Biso   1.000  C
  C10      1.0000 0.56550  0.04510  0.34430  Biso   1.000  C
  C11      1.0000 0.04510  0.34430  0.04510  Biso   1.000  C
  C12      1.0000 0.34430  0.04510  0.56550  Biso   1.000  C
  C13      1.0000 0.04510  0.04510  0.34430  Biso   1.000  C
  C14      1.0000 0.56550  0.34430  0.04510  Biso   1.000  C
  C15      1.0000 0.04510  0.04510  0.56550  Biso   1.000  C
  C16      1.0000 0.34430  0.56550  0.04510  Biso   1.000  C
  C17      1.0000 0.04510  0.34430  0.56550  Biso   1.000  C
  C18      1.0000 0.56550  0.04510  0.04510  Biso   1.000  C
  C19      1.0000 0.04510  0.56550  0.34430  Biso   1.000  C
  C20      1.0000 0.34430  0.04510  0.04510  Biso   1.000  C
  C21      1.0000 0.43450  0.95490  0.95490  Biso   1.000  C
  C22      1.0000 0.95490  0.43450  0.65570  Biso   1.000  C
  C23      1.0000 0.65570  0.95490  0.95490  Biso   1.000  C
  C24      1.0000 0.95490  0.65570  0.43450  Biso   1.000  C
  C25      1.0000 0.95490  0.95490  0.65570  Biso   1.000  C
  C26      1.0000 0.65570  0.43450  0.95490  Biso   1.000  C
  C27      1.0000 0.95490  0.95490  0.43450  Biso   1.000  C
  C28      1.0000 0.43450  0.65570  0.95490  Biso   1.000  C
  C29      1.0000 0.65570  0.95490  0.43450  Biso   1.000  C
  C30      1.0000 0.95490  0.43450  0.95490  Biso   1.000  C
  C31      1.0000 0.43450  0.95490  0.65570  Biso   1.000  C
  C32      1.0000 0.95490  0.65570  0.95490  Biso   1.000  C
  C33      1.0000 0.02675  0.53889  0.02675  Biso   1.000  C
  C34      1.0000 0.53889  0.02675  0.40761  Biso   1.000  C
  C35      1.0000 0.02675  0.40761  0.02675  Biso   1.000  C
  C36      1.0000 0.40761  0.02675  0.53889  Biso   1.000  C
  C37      1.0000 0.02675  0.02675  0.40761  Biso   1.000  C
  C38      1.0000 0.53889  0.40761  0.02675  Biso   1.000  C
  C39      1.0000 0.02675  0.02675  0.53889  Biso   1.000  C
  C40      1.0000 0.40761  0.53889  0.02675  Biso   1.000  C
  C41      1.0000 0.02675  0.40761  0.53889  Biso   1.000  C
  C42      1.0000 0.53889  0.02675  0.02675  Biso   1.000  C
  C43      1.0000 0.02675  0.53889  0.40761  Biso   1.000  C
  C44      1.0000 0.40761  0.02675  0.02675  Biso   1.000  C
  C45      1.0000 0.46111  0.97325  0.97325  Biso   1.000  C
  C46      1.0000 0.97325  0.46111  0.59239  Biso   1.000  C
  C47      1.0000 0.59239  0.97325  0.97325  Biso   1.000  C
  C48      1.0000 0.97325  0.59239  0.46111  Biso   1.000  C
  C49      1.0000 0.97325  0.97325  0.59239  Biso   1.000  C
  C50      1.0000 0.59239  0.46111  0.97325  Biso   1.000  C
  C51      1.0000 0.97325  0.97325  0.46111  Biso   1.000  C
  C52      1.0000 0.46111  0.59239  0.97325  Biso   1.000  C
  C53      1.0000 0.59239  0.97325  0.46111  Biso   1.000  C
  C54      1.0000 0.97325  0.46111  0.97325  Biso   1.000  C
  C55      1.0000 0.46111  0.97325  0.59239  Biso   1.000  C
  C56      1.0000 0.97325  0.59239  0.97325  Biso   1.000  C
  C57      1.0000 0.11147  0.38853  0.11147  Biso   1.000  C
  C58      1.0000 0.05374  0.44626  0.05374  Biso   1.000  C
  C59      1.0000 0.38853  0.11147  0.38853  Biso   1.000  C
  C60      1.0000 0.44626  0.05374  0.44626  Biso   1.000  C
  C61      1.0000 0.11147  0.11147  0.38853  Biso   1.000  C
  C62      1.0000 0.05374  0.05374  0.44626  Biso   1.000  C
  C63      1.0000 0.38853  0.38853  0.11147  Biso   1.000  C
  C64      1.0000 0.44626  0.44626  0.05374  Biso   1.000  C
  C65      1.0000 0.11147  0.38853  0.38853  Biso   1.000  C
  C66      1.0000 0.05374  0.44626  0.44626  Biso   1.000  C
  C67      1.0000 0.38853  0.11147  0.11147  Biso   1.000  C
  C68      1.0000 0.44626  0.05374  0.05374  Biso   1.000  C
  C69      1.0000 0.61147  0.88853  0.88853  Biso   1.000  C
  C70      1.0000 0.55374  0.94626  0.94626  Biso   1.000  C
  C71      1.0000 0.88853  0.61147  0.61147  Biso   1.000  C
  C72      1.0000 0.94626  0.55374  0.55374  Biso   1.000  C
  C73      1.0000 0.88853  0.88853  0.61147  Biso   1.000  C
  C74      1.0000 0.94626  0.94626  0.55374  Biso   1.000  C
  C75      1.0000 0.61147  0.61147  0.88853  Biso   1.000  C
  C76      1.0000 0.55374  0.55374  0.94626  Biso   1.000  C
  C77      1.0000 0.61147  0.88853  0.61147  Biso   1.000  C
  C78      1.0000 0.55374  0.94626  0.55374  Biso   1.000  C
  C79      1.0000 0.88853  0.61147  0.88853  Biso   1.000  C
  C80      1.0000 0.94626  0.55374  0.94626  Biso   1.000  C
  C81      1.0000 0.25000  0.25000  0.25000  Biso   1.000  C
  C82      1.0000 0.75000  0.75000  0.75000  Biso   1.000  C
  C83      1.0000 0.13372  0.42764  0.13372  Biso   1.000  C
  C84      1.0000 0.42764  0.13372  0.30492  Biso   1.000  C
  C85      1.0000 0.13372  0.30492  0.13372  Biso   1.000  C
  C86      1.0000 0.30492  0.13372  0.42764  Biso   1.000  C
  C87      1.0000 0.13372  0.13372  0.30492  Biso   1.000  C
  C88      1.0000 0.42764  0.30492  0.13372  Biso   1.000  C
  C89      1.0000 0.13372  0.13372  0.42764  Biso   1.000  C
  C90      1.0000 0.30492  0.42764  0.13372  Biso   1.000  C
  C91      1.0000 0.13372  0.30492  0.42764  Biso   1.000  C
  C92      1.0000 0.42764  0.13372  0.13372  Biso   1.000  C
  C93      1.0000 0.13372  0.42764  0.30492  Biso   1.000  C
  C94      1.0000 0.30492  0.13372  0.13372  Biso   1.000  C
  C95      1.0000 0.57236  0.86628  0.86628  Biso   1.000  C
  C96      1.0000 0.86628  0.57236  0.69508  Biso   1.000  C
  C97      1.0000 0.69508  0.86628  0.86628  Biso   1.000  C
  C98      1.0000 0.86628  0.69508  0.57236  Biso   1.000  C
  C99      1.0000 0.86628  0.86628  0.69508  Biso   1.000  C
  C100     1.0000 0.69508  0.57236  0.86628  Biso   1.000  C
  C101     1.0000 0.86628  0.86628  0.57236  Biso   1.000  C
  C102     1.0000 0.57236  0.69508  0.86628  Biso   1.000  C
  C103     1.0000 0.69508  0.86628  0.57236  Biso   1.000  C
  C104     1.0000 0.86628  0.57236  0.86628  Biso   1.000  C
  C105     1.0000 0.57236  0.86628  0.69508  Biso   1.000  C
  C106     1.0000 0.86628  0.69508  0.86628  Biso   1.000  C
  O1       1.0000 0.00000  0.00000  0.00000  Biso   1.000  O
  O2       1.0000 0.41354  0.58633  0.41381  Biso   1.000  O
  O3       1.0000 0.41354  0.41186  0.41381  Biso   1.000  O
  O4       1.0000 1.00000  0.82552  0.00000  Biso   1.000  O
  O5       1.0000 0.99954  0.00034  0.82531  Biso   1.000  O
  O6       1.0000 0.82513  0.00015  0.00010  Biso   1.000  O
  O7       1.0000 0.41399  0.41152  0.58850  Biso   1.000  O
  O8       1.0000 0.58841  0.41171  0.41371  Biso   1.000  O
  O9       1.0000 0.16504  0.64400  0.85676  Biso   1.000  O
  O10      1.0000 0.15642  0.86063  0.64554  Biso   1.000  O
  O11      1.0000 0.86186  0.64509  0.15978  Biso   1.000  O
  O12      1.0000 0.64254  0.85811  0.16207  Biso   1.000  O
  O13      1.0000 0.16584  0.86011  0.15728  Biso   1.000  O
  O14      1.0000 0.24850  0.25213  0.55704  Biso   1.000  O
  O15      1.0000 0.25712  0.24893  0.76826  Biso   1.000  O
  O16      1.0000 0.55168  0.25304  0.25403  Biso   1.000  O
  O17      1.0000 0.77100  0.24905  0.25173  Biso   1.000  O
  O18      1.0000 0.24769  0.76956  0.25652  Biso   1.000  O
  O19      1.0000 0.24850  0.76785  0.55704  Biso   1.000  O
  O20      1.0000 0.25712  0.55122  0.76826  Biso   1.000  O
  O21      1.0000 0.55168  0.76677  0.25403  Biso   1.000  O
  O22      1.0000 0.77100  0.55375  0.25173  Biso   1.000  O
  O23      1.0000 0.24769  0.55175  0.25652  Biso   1.000  O
  O24      1.0000 0.16503  0.15973  0.85676  Biso   1.000  O
  O25      1.0000 0.15642  0.16293  0.64554  Biso   1.000  O
  O26      1.0000 0.86185  0.15881  0.15978  Biso   1.000  O
  O27      1.0000 0.64254  0.16280  0.16207  Biso   1.000  O
  O28      1.0000 0.16585  0.64229  0.15728  Biso   1.000  O
  O29      1.0000 0.64342  0.16162  0.85886  Biso   1.000  O
  O30      1.0000 0.85682  0.16273  0.64325  Biso   1.000  O
  O31      1.0000 0.77011  0.25023  0.55495  Biso   1.000  O
  O32      1.0000 0.55672  0.24912  0.77056  Biso   1.000  O
  O33      1.0000 0.09407  0.81702  0.82045  Biso   1.000  O
  O34      1.0000 0.15353  0.75906  0.75938  Biso   1.000  O
  O35      1.0000 0.18279  0.66965  0.79470  Biso   1.000  O
  O36      1.0000 0.17577  0.79867  0.67148  Biso   1.000  O
  O37      1.0000 0.81563  0.82020  0.09692  Biso   1.000  O
  O38      1.0000 0.76166  0.76183  0.15210  Biso   1.000  O
  O39      1.0000 0.79980  0.67122  0.17774  Biso   1.000  O
  O40      1.0000 0.67017  0.79625  0.17953  Biso   1.000  O
  O41      1.0000 0.18171  0.79815  0.17734  Biso   1.000  O
  O42      1.0000 0.31946  0.31787  0.59336  Biso   1.000  O
  O43      1.0000 0.26000  0.25831  0.65442  Biso   1.000  O
  O44      1.0000 0.23075  0.23347  0.61910  Biso   1.000  O
  O45      1.0000 0.23776  0.23227  0.74232  Biso   1.000  O
  O46      1.0000 0.59790  0.31909  0.31689  Biso   1.000  O
  O47      1.0000 0.65187  0.26192  0.26171  Biso   1.000  O
  O48      1.0000 0.61374  0.23508  0.23607  Biso   1.000  O
  O49      1.0000 0.74336  0.23229  0.23427  Biso   1.000  O
  O50      1.0000 0.23182  0.74352  0.23647  Biso   1.000  O
  O51      1.0000 0.31946  0.59483  0.59336  Biso   1.000  O
  O52      1.0000 0.26001  0.65279  0.65442  Biso   1.000  O
  O53      1.0000 0.23074  0.74221  0.61910  Biso   1.000  O
  O54      1.0000 0.23776  0.61318  0.74232  Biso   1.000  O
  O55      1.0000 0.59790  0.59165  0.31689  Biso   1.000  O
  O56      1.0000 0.65188  0.65002  0.26171  Biso   1.000  O
  O57      1.0000 0.61374  0.74063  0.23607  Biso   1.000  O
  O58      1.0000 0.74336  0.61560  0.23427  Biso   1.000  O
  O59      1.0000 0.23183  0.61371  0.23647  Biso   1.000  O
  O60      1.0000 0.09407  0.09398  0.82045  Biso   1.000  O
  O61      1.0000 0.15353  0.15355  0.75938  Biso   1.000  O
  O62      1.0000 0.18279  0.17839  0.79470  Biso   1.000  O
  O63      1.0000 0.17578  0.17959  0.67148  Biso   1.000  O
  O64      1.0000 0.81563  0.09277  0.09692  Biso   1.000  O
  O65      1.0000 0.76166  0.14993  0.15210  Biso   1.000  O
  O66      1.0000 0.79980  0.17677  0.17774  Biso   1.000  O
  O67      1.0000 0.67018  0.17956  0.17953  Biso   1.000  O
  O68      1.0000 0.18171  0.66833  0.17734  Biso   1.000  O
  O69      1.0000 0.82230  0.09478  0.81366  Biso   1.000  O
  O70      1.0000 0.76025  0.15185  0.76158  Biso   1.000  O
  O71      1.0000 0.67056  0.17899  0.79700  Biso   1.000  O
  O72      1.0000 0.79486  0.18019  0.67029  Biso   1.000  O
  O73      1.0000 0.09259  0.82200  0.08894  Biso   1.000  O
  O74      1.0000 0.15245  0.76044  0.15220  Biso   1.000  O
  O75      1.0000 0.59123  0.31708  0.60014  Biso   1.000  O
  O76      1.0000 0.65329  0.26001  0.65223  Biso   1.000  O
  O77      1.0000 0.74298  0.23287  0.61681  Biso   1.000  O
  O78      1.0000 0.61867  0.23167  0.74352  Biso   1.000  O
  O79      1.0000 0.32095  0.58986  0.32487  Biso   1.000  O
  O80      1.0000 0.26108  0.65142  0.26161  Biso   1.000  O
  O81      1.0000 0.07402  0.90223  0.77465  Biso   1.000  O
  O82      1.0000 0.07532  0.77322  0.90446  Biso   1.000  O
  O83      1.0000 0.77582  0.90321  0.07048  Biso   1.000  O
  O84      1.0000 0.90173  0.77620  0.07447  Biso   1.000  O
  O85      1.0000 0.07353  0.90421  0.07168  Biso   1.000  O
  O86      1.0000 0.33952  0.33723  0.63916  Biso   1.000  O
  O87      1.0000 0.33821  0.33933  0.50935  Biso   1.000  O
  O88      1.0000 0.63771  0.33585  0.34333  Biso   1.000  O
  O89      1.0000 0.51180  0.33874  0.33933  Biso   1.000  O
  O90      1.0000 0.34000  0.63575  0.34213  Biso   1.000  O
  O91      1.0000 0.33952  0.50963  0.63916  Biso   1.000  O
  O92      1.0000 0.33822  0.63864  0.50935  Biso   1.000  O
  O93      1.0000 0.63771  0.50865  0.34333  Biso   1.000  O
  O94      1.0000 0.51180  0.63565  0.33933  Biso   1.000  O
  O95      1.0000 0.34000  0.50765  0.34213  Biso   1.000  O
  O96      1.0000 0.07402  0.07463  0.77465  Biso   1.000  O
  O97      1.0000 0.07532  0.07253  0.90446  Biso   1.000  O
  O98      1.0000 0.77582  0.07601  0.07048  Biso   1.000  O
  O99      1.0000 0.90173  0.07312  0.07447  Biso   1.000  O
  O100     1.0000 0.07353  0.77611  0.07168  Biso   1.000  O
  O101     1.0000 0.95690  0.95629  0.95604  Biso   1.000  O
  O102     1.0000 0.90291  0.07363  0.77535  Biso   1.000  O
  O103     1.0000 0.77721  0.07592  0.89647  Biso   1.000  O
  O104     1.0000 0.45664  0.45556  0.45777  Biso   1.000  O
  O105     1.0000 0.51062  0.33822  0.63846  Biso   1.000  O
