data_image0
_cell_length_a       18.283
_cell_length_b       18.283
_cell_length_c       18.283
_cell_angle_alpha    60
_cell_angle_beta     60
_cell_angle_gamma    60

_symmetry_space_group_name_H-M    "P 1"
_symmetry_int_tables_number       1

loop_
  _symmetry_equiv_pos_as_xyz
  'x, y, z'

loop_
  _atom_site_label
  _atom_site_occupancy
  _atom_site_fract_x
  _atom_site_fract_y
  _atom_site_fract_z
  _atom_site_thermal_displace_type
  _atom_site_B_iso_or_equiv
  _atom_site_type_symbol
  Zn1      1.0000 0.20657  0.38031  0.20656  Biso   1.000  Zn
  Zn2      1.0000 0.38032  0.20656  0.20656  Biso   1.000  Zn
  Zn3      1.0000 0.20657  0.20656  0.20656  Biso   1.000  Zn
  Zn4      1.0000 0.20657  0.20656  0.38031  Biso   1.000  Zn
  Zn5      1.0000 0.61968  0.79344  0.79344  Biso   1.000  Zn
  Zn6      1.0000 0.79343  0.61969  0.79344  Biso   1.000  Zn
  Zn7      1.0000 0.79343  0.79344  0.79344  Biso   1.000  Zn
  Zn8      1.0000 0.79343  0.79344  0.61969  Biso   1.000  Zn
  H1       1.0000 0.04500  0.56540  0.04500  Biso   1.000  H
  H2       1.0000 0.56540  0.04500  0.34460  Biso   1.000  H
  H3       1.0000 0.04500  0.34460  0.04500  Biso   1.000  H
  H4       1.0000 0.34460  0.04500  0.56540  Biso   1.000  H
  H5       1.0000 0.04500  0.04500  0.34460  Biso   1.000  H
  H6       1.0000 0.56540  0.34460  0.04500  Biso   1.000  H
  H7       1.0000 0.04500  0.04500  0.56540  Biso   1.000  H
  H8       1.0000 0.34460  0.56540  0.04500  Biso   1.000  H
  H9       1.0000 0.04500  0.34460  0.56540  Biso   1.000  H
  H10      1.0000 0.56540  0.04500  0.04500  Biso   1.000  H
  H11      1.0000 0.04500  0.56540  0.34460  Biso   1.000  H
  H12      1.0000 0.34460  0.04500  0.04500  Biso   1.000  H
  H13      1.0000 0.43460  0.95500  0.95500  Biso   1.000  H
  H14      1.0000 0.95500  0.43460  0.65540  Biso   1.000  H
  H15      1.0000 0.65540  0.95500  0.95500  Biso   1.000  H
  H16      1.0000 0.95500  0.65540  0.43460  Biso   1.000  H
  H17      1.0000 0.95500  0.95500  0.65540  Biso   1.000  H
  H18      1.0000 0.65540  0.43460  0.95500  Biso   1.000  H
  H19      1.0000 0.95500  0.95500  0.43460  Biso   1.000  H
  H20      1.0000 0.43460  0.65540  0.95500  Biso   1.000  H
  H21      1.0000 0.65540  0.95500  0.43460  Biso   1.000  H
  H22      1.0000 0.95500  0.43460  0.95500  Biso   1.000  H
  H23      1.0000 0.43460  0.95500  0.65540  Biso   1.000  H
  H24      1.0000 0.95500  0.65540  0.95500  Biso   1.000  H
  C1       1.0000 0.02670  0.53864  0.02670  Biso   1.000  C
  C2       1.0000 0.53864  0.02670  0.40796  Biso   1.000  C
  C3       1.0000 0.02670  0.40796  0.02670  Biso   1.000  C
  C4       1.0000 0.40796  0.02670  0.53864  Biso   1.000  C
  C5       1.0000 0.02670  0.02670  0.40796  Biso   1.000  C
  C6       1.0000 0.53864  0.40796  0.02670  Biso   1.000  C
  C7       1.0000 0.02670  0.02670  0.53864  Biso   1.000  C
  C8       1.0000 0.40796  0.53864  0.02670  Biso   1.000  C
  C9       1.0000 0.02670  0.40796  0.53864  Biso   1.000  C
  C10      1.0000 0.53864  0.02670  0.02670  Biso   1.000  C
  C11      1.0000 0.02670  0.53864  0.40796  Biso   1.000  C
  C12      1.0000 0.40796  0.02670  0.02670  Biso   1.000  C
  C13      1.0000 0.46136  0.97330  0.97330  Biso   1.000  C
  C14      1.0000 0.97330  0.46136  0.59204  Biso   1.000  C
  C15      1.0000 0.59204  0.97330  0.97330  Biso   1.000  C
  C16      1.0000 0.97330  0.59204  0.46136  Biso   1.000  C
  C17      1.0000 0.97330  0.97330  0.59204  Biso   1.000  C
  C18      1.0000 0.59204  0.46136  0.97330  Biso   1.000  C
  C19      1.0000 0.97330  0.97330  0.46136  Biso   1.000  C
  C20      1.0000 0.46136  0.59204  0.97330  Biso   1.000  C
  C21      1.0000 0.59204  0.97330  0.46136  Biso   1.000  C
  C22      1.0000 0.97330  0.46136  0.97330  Biso   1.000  C
  C23      1.0000 0.46136  0.97330  0.59204  Biso   1.000  C
  C24      1.0000 0.97330  0.59204  0.97330  Biso   1.000  C
  C25      1.0000 0.11148  0.38852  0.11148  Biso   1.000  C
  C26      1.0000 0.05372  0.44628  0.05372  Biso   1.000  C
  C27      1.0000 0.38852  0.11148  0.38852  Biso   1.000  C
  C28      1.0000 0.44628  0.05372  0.44628  Biso   1.000  C
  C29      1.0000 0.11148  0.11148  0.38852  Biso   1.000  C
  C30      1.0000 0.05372  0.05372  0.44628  Biso   1.000  C
  C31      1.0000 0.38852  0.38852  0.11148  Biso   1.000  C
  C32      1.0000 0.44628  0.44628  0.05372  Biso   1.000  C
  C33      1.0000 0.11148  0.38852  0.38852  Biso   1.000  C
  C34      1.0000 0.05372  0.44628  0.44628  Biso   1.000  C
  C35      1.0000 0.38852  0.11148  0.11148  Biso   1.000  C
  C36      1.0000 0.44628  0.05372  0.05372  Biso   1.000  C
  C37      1.0000 0.61148  0.88852  0.88852  Biso   1.000  C
  C38      1.0000 0.55372  0.94628  0.94628  Biso   1.000  C
  C39      1.0000 0.88852  0.61148  0.61148  Biso   1.000  C
  C40      1.0000 0.94628  0.55372  0.55372  Biso   1.000  C
  C41      1.0000 0.88852  0.88852  0.61148  Biso   1.000  C
  C42      1.0000 0.94628  0.94628  0.55372  Biso   1.000  C
  C43      1.0000 0.61148  0.61148  0.88852  Biso   1.000  C
  C44      1.0000 0.55372  0.55372  0.94628  Biso   1.000  C
  C45      1.0000 0.61148  0.88852  0.61148  Biso   1.000  C
  C46      1.0000 0.55372  0.94628  0.55372  Biso   1.000  C
  C47      1.0000 0.88852  0.61148  0.88852  Biso   1.000  C
  C48      1.0000 0.94628  0.55372  0.94628  Biso   1.000  C
  O1       1.0000 0.25000  0.25000  0.25000  Biso   1.000  O
  O2       1.0000 0.75000  0.75000  0.75000  Biso   1.000  O
  O3       1.0000 0.13373  0.42751  0.13373  Biso   1.000  O
  O4       1.0000 0.42751  0.13373  0.30503  Biso   1.000  O
  O5       1.0000 0.13373  0.30503  0.13373  Biso   1.000  O
  O6       1.0000 0.30503  0.13373  0.42751  Biso   1.000  O
  O7       1.0000 0.13373  0.13373  0.30503  Biso   1.000  O
  O8       1.0000 0.42751  0.30503  0.13373  Biso   1.000  O
  O9       1.0000 0.13373  0.13373  0.42751  Biso   1.000  O
  O10      1.0000 0.30503  0.42751  0.13373  Biso   1.000  O
  O11      1.0000 0.13373  0.30503  0.42751  Biso   1.000  O
  O12      1.0000 0.42751  0.13373  0.13373  Biso   1.000  O
  O13      1.0000 0.13373  0.42751  0.30503  Biso   1.000  O
  O14      1.0000 0.30503  0.13373  0.13373  Biso   1.000  O
  O15      1.0000 0.57249  0.86627  0.86627  Biso   1.000  O
  O16      1.0000 0.86627  0.57249  0.69497  Biso   1.000  O
  O17      1.0000 0.69497  0.86627  0.86627  Biso   1.000  O
  O18      1.0000 0.86627  0.69497  0.57249  Biso   1.000  O
  O19      1.0000 0.86627  0.86627  0.69497  Biso   1.000  O
  O20      1.0000 0.69497  0.57249  0.86627  Biso   1.000  O
  O21      1.0000 0.86627  0.86627  0.57249  Biso   1.000  O
  O22      1.0000 0.57249  0.69497  0.86627  Biso   1.000  O
  O23      1.0000 0.69497  0.86627  0.57249  Biso   1.000  O
  O24      1.0000 0.86627  0.57249  0.86627  Biso   1.000  O
  O25      1.0000 0.57249  0.86627  0.69497  Biso   1.000  O
  O26      1.0000 0.86627  0.69497  0.86627  Biso   1.000  O
  Zn9      1.0000 0.00000  0.00000  0.00000  Biso   1.000  Zn
  Zn10     1.0000 0.00000  0.00000  0.17385  Biso   1.000  Zn
  Zn11     1.0000 0.82615  0.00000  0.17385  Biso   1.000  Zn
  Zn12     1.0000 1.00000  0.82615  0.17385  Biso   1.000  Zn
  Zn13     1.0000 0.41324  0.41324  0.76092  Biso   1.000  Zn
  Zn14     1.0000 0.41325  0.41323  0.58708  Biso   1.000  Zn
  Zn15     1.0000 0.41324  0.58708  0.58709  Biso   1.000  Zn
  Zn16     1.0000 0.58710  0.41323  0.58708  Biso   1.000  Zn
  H25      1.0000 0.16151  0.16150  0.81550  Biso   1.000  H
  H26      1.0000 0.16151  0.16150  0.03565  Biso   1.000  H
  H27      1.0000 0.64166  0.86181  0.33535  Biso   1.000  H
  H28      1.0000 0.86182  0.64165  0.33535  Biso   1.000  H
  H29      1.0000 0.16151  0.64165  0.03565  Biso   1.000  H
  H30      1.0000 0.16151  0.86181  0.81550  Biso   1.000  H
  H31      1.0000 0.64166  0.16150  0.33535  Biso   1.000  H
  H32      1.0000 0.86182  0.16150  0.33535  Biso   1.000  H
  H33      1.0000 0.16151  0.86181  0.33535  Biso   1.000  H
  H34      1.0000 0.16151  0.64165  0.33535  Biso   1.000  H
  H35      1.0000 0.64166  0.16150  0.03565  Biso   1.000  H
  H36      1.0000 0.86182  0.16150  0.81550  Biso   1.000  H
  H37      1.0000 0.25174  0.25173  0.94542  Biso   1.000  H
  H38      1.0000 0.25174  0.25173  0.72527  Biso   1.000  H
  H39      1.0000 0.55143  0.77158  0.42557  Biso   1.000  H
  H40      1.0000 0.77159  0.55142  0.42557  Biso   1.000  H
  H41      1.0000 0.77159  0.25173  0.72527  Biso   1.000  H
  H42      1.0000 0.55143  0.25173  0.94542  Biso   1.000  H
  H43      1.0000 0.25174  0.77158  0.42557  Biso   1.000  H
  H44      1.0000 0.25174  0.55142  0.42557  Biso   1.000  H
  H45      1.0000 0.55143  0.25173  0.42557  Biso   1.000  H
  H46      1.0000 0.77159  0.25173  0.42557  Biso   1.000  H
  H47      1.0000 0.25174  0.77158  0.72527  Biso   1.000  H
  H48      1.0000 0.25174  0.55142  0.94542  Biso   1.000  H
  C49      1.0000 0.17976  0.17975  0.84235  Biso   1.000  C
  C50      1.0000 0.17976  0.17975  0.97231  Biso   1.000  C
  C51      1.0000 0.66851  0.79847  0.35359  Biso   1.000  C
  C52      1.0000 0.79848  0.66850  0.35359  Biso   1.000  C
  C53      1.0000 0.17976  0.66850  0.97231  Biso   1.000  C
  C54      1.0000 0.17976  0.79847  0.84235  Biso   1.000  C
  C55      1.0000 0.66851  0.17975  0.35359  Biso   1.000  C
  C56      1.0000 0.79848  0.17975  0.35359  Biso   1.000  C
  C57      1.0000 0.17976  0.79847  0.35359  Biso   1.000  C
  C58      1.0000 0.17976  0.66850  0.35359  Biso   1.000  C
  C59      1.0000 0.66851  0.17975  0.97231  Biso   1.000  C
  C60      1.0000 0.79848  0.17975  0.84235  Biso   1.000  C
  C61      1.0000 0.23349  0.23348  0.91857  Biso   1.000  C
  C62      1.0000 0.23349  0.23348  0.78861  Biso   1.000  C
  C63      1.0000 0.61477  0.74473  0.40733  Biso   1.000  C
  C64      1.0000 0.74474  0.61476  0.40733  Biso   1.000  C
  C65      1.0000 0.74474  0.23348  0.78861  Biso   1.000  C
  C66      1.0000 0.61477  0.23348  0.91857  Biso   1.000  C
  C67      1.0000 0.23349  0.74473  0.40733  Biso   1.000  C
  C68      1.0000 0.23349  0.61476  0.40733  Biso   1.000  C
  C69      1.0000 0.61477  0.23348  0.40733  Biso   1.000  C
  C70      1.0000 0.74474  0.23348  0.40733  Biso   1.000  C
  C71      1.0000 0.23349  0.74473  0.78861  Biso   1.000  C
  C72      1.0000 0.23349  0.61476  0.91857  Biso   1.000  C
  C73      1.0000 0.09508  0.09507  0.99185  Biso   1.000  C
  C74      1.0000 0.15285  0.15284  0.93408  Biso   1.000  C
  C75      1.0000 0.81801  0.81800  0.26892  Biso   1.000  C
  C76      1.0000 0.76024  0.76023  0.32668  Biso   1.000  C
  C77      1.0000 0.09508  0.81800  0.99185  Biso   1.000  C
  C78      1.0000 0.15285  0.76023  0.93408  Biso   1.000  C
  C79      1.0000 0.81801  0.09507  0.26892  Biso   1.000  C
  C80      1.0000 0.76024  0.15284  0.32668  Biso   1.000  C
  C81      1.0000 0.09508  0.81800  0.26892  Biso   1.000  C
  C82      1.0000 0.15285  0.76023  0.32668  Biso   1.000  C
  C83      1.0000 0.81801  0.09507  0.99185  Biso   1.000  C
  C84      1.0000 0.76024  0.15284  0.93408  Biso   1.000  C
  C85      1.0000 0.31817  0.31816  0.76907  Biso   1.000  C
  C86      1.0000 0.26040  0.26039  0.82684  Biso   1.000  C
  C87      1.0000 0.59524  0.59523  0.49201  Biso   1.000  C
  C88      1.0000 0.65301  0.65300  0.43424  Biso   1.000  C
  C89      1.0000 0.59524  0.31816  0.76907  Biso   1.000  C
  C90      1.0000 0.65301  0.26039  0.82684  Biso   1.000  C
  C91      1.0000 0.31817  0.59523  0.49201  Biso   1.000  C
  C92      1.0000 0.26040  0.65300  0.43424  Biso   1.000  C
  C93      1.0000 0.59524  0.31816  0.49201  Biso   1.000  C
  C94      1.0000 0.65301  0.26039  0.43424  Biso   1.000  C
  C95      1.0000 0.31817  0.59523  0.76907  Biso   1.000  C
  C96      1.0000 0.26040  0.65300  0.82684  Biso   1.000  C
  O27      1.0000 0.95655  0.95654  0.13038  Biso   1.000  O
  O28      1.0000 0.45670  0.45669  0.63054  Biso   1.000  O
  O29      1.0000 0.07278  0.07277  0.95319  Biso   1.000  O
  O30      1.0000 0.07278  0.07277  0.07510  Biso   1.000  O
  O31      1.0000 0.77935  0.90126  0.24662  Biso   1.000  O
  O32      1.0000 0.90127  0.77934  0.24662  Biso   1.000  O
  O33      1.0000 0.07278  0.77934  0.07510  Biso   1.000  O
  O34      1.0000 0.07278  0.90126  0.95319  Biso   1.000  O
  O35      1.0000 0.77935  0.07277  0.24662  Biso   1.000  O
  O36      1.0000 0.90127  0.07277  0.24662  Biso   1.000  O
  O37      1.0000 0.07278  0.90126  0.24662  Biso   1.000  O
  O38      1.0000 0.07278  0.77934  0.24662  Biso   1.000  O
  O39      1.0000 0.77935  0.07277  0.07510  Biso   1.000  O
  O40      1.0000 0.90127  0.07277  0.95319  Biso   1.000  O
  O41      1.0000 0.34047  0.34046  0.80774  Biso   1.000  O
  O42      1.0000 0.34047  0.34046  0.68582  Biso   1.000  O
  O43      1.0000 0.51198  0.63389  0.51430  Biso   1.000  O
  O44      1.0000 0.63390  0.51197  0.51430  Biso   1.000  O
  O45      1.0000 0.63390  0.34046  0.68582  Biso   1.000  O
  O46      1.0000 0.51198  0.34046  0.80774  Biso   1.000  O
  O47      1.0000 0.34047  0.63389  0.51430  Biso   1.000  O
  O48      1.0000 0.34047  0.51197  0.51430  Biso   1.000  O
  O49      1.0000 0.51198  0.34046  0.51430  Biso   1.000  O
  O50      1.0000 0.63390  0.34046  0.51430  Biso   1.000  O
  O51      1.0000 0.34047  0.63389  0.68582  Biso   1.000  O
