data_image0
_cell_length_a       18.283
_cell_length_b       18.283
_cell_length_c       18.283
_cell_angle_alpha    60
_cell_angle_beta     60
_cell_angle_gamma    60

_symmetry_space_group_name_H-M    "P 1"
_symmetry_int_tables_number       1

loop_
  _symmetry_equiv_pos_as_xyz
  'x, y, z'

loop_
  _atom_site_label
  _atom_site_occupancy
  _atom_site_fract_x
  _atom_site_fract_y
  _atom_site_fract_z
  _atom_site_thermal_displace_type
  _atom_site_B_iso_or_equiv
  _atom_site_type_symbol
  Zn1      1.0000 0.20657  0.38031  0.20656  Biso   1.000  Zn
  Zn2      1.0000 0.38032  0.20656  0.20656  Biso   1.000  Zn
  Zn3      1.0000 0.20657  0.20656  0.20656  Biso   1.000  Zn
  Zn4      1.0000 0.20657  0.20656  0.38031  Biso   1.000  Zn
  Zn5      1.0000 0.61968  0.79344  0.79344  Biso   1.000  Zn
  Zn6      1.0000 0.79343  0.61969  0.79344  Biso   1.000  Zn
  Zn7      1.0000 0.79343  0.79344  0.79344  Biso   1.000  Zn
  Zn8      1.0000 0.79343  0.79344  0.61969  Biso   1.000  Zn
  H1       1.0000 0.04500  0.56540  0.04500  Biso   1.000  H
  H2       1.0000 0.56540  0.04500  0.34460  Biso   1.000  H
  H3       1.0000 0.04500  0.34460  0.04500  Biso   1.000  H
  H4       1.0000 0.34460  0.04500  0.56540  Biso   1.000  H
  H5       1.0000 0.04500  0.04500  0.34460  Biso   1.000  H
  H6       1.0000 0.56540  0.34460  0.04500  Biso   1.000  H
  H7       1.0000 0.04500  0.04500  0.56540  Biso   1.000  H
  H8       1.0000 0.34460  0.56540  0.04500  Biso   1.000  H
  H9       1.0000 0.04500  0.34460  0.56540  Biso   1.000  H
  H10      1.0000 0.56540  0.04500  0.04500  Biso   1.000  H
  H11      1.0000 0.04500  0.56540  0.34460  Biso   1.000  H
  H12      1.0000 0.34460  0.04500  0.04500  Biso   1.000  H
  H13      1.0000 0.43460  0.95500  0.95500  Biso   1.000  H
  H14      1.0000 0.95500  0.43460  0.65540  Biso   1.000  H
  H15      1.0000 0.65540  0.95500  0.95500  Biso   1.000  H
  H16      1.0000 0.95500  0.65540  0.43460  Biso   1.000  H
  H17      1.0000 0.95500  0.95500  0.65540  Biso   1.000  H
  H18      1.0000 0.65540  0.43460  0.95500  Biso   1.000  H
  H19      1.0000 0.95500  0.95500  0.43460  Biso   1.000  H
  H20      1.0000 0.43460  0.65540  0.95500  Biso   1.000  H
  H21      1.0000 0.65540  0.95500  0.43460  Biso   1.000  H
  H22      1.0000 0.95500  0.43460  0.95500  Biso   1.000  H
  H23      1.0000 0.43460  0.95500  0.65540  Biso   1.000  H
  H24      1.0000 0.95500  0.65540  0.95500  Biso   1.000  H
  C1       1.0000 0.02670  0.53864  0.02670  Biso   1.000  C
  C2       1.0000 0.53864  0.02670  0.40796  Biso   1.000  C
  C3       1.0000 0.02670  0.40796  0.02670  Biso   1.000  C
  C4       1.0000 0.40796  0.02670  0.53864  Biso   1.000  C
  C5       1.0000 0.02670  0.02670  0.40796  Biso   1.000  C
  C6       1.0000 0.53864  0.40796  0.02670  Biso   1.000  C
  C7       1.0000 0.02670  0.02670  0.53864  Biso   1.000  C
  C8       1.0000 0.40796  0.53864  0.02670  Biso   1.000  C
  C9       1.0000 0.02670  0.40796  0.53864  Biso   1.000  C
  C10      1.0000 0.53864  0.02670  0.02670  Biso   1.000  C
  C11      1.0000 0.02670  0.53864  0.40796  Biso   1.000  C
  C12      1.0000 0.40796  0.02670  0.02670  Biso   1.000  C
  C13      1.0000 0.46136  0.97330  0.97330  Biso   1.000  C
  C14      1.0000 0.97330  0.46136  0.59204  Biso   1.000  C
  C15      1.0000 0.59204  0.97330  0.97330  Biso   1.000  C
  C16      1.0000 0.97330  0.59204  0.46136  Biso   1.000  C
  C17      1.0000 0.97330  0.97330  0.59204  Biso   1.000  C
  C18      1.0000 0.59204  0.46136  0.97330  Biso   1.000  C
  C19      1.0000 0.97330  0.97330  0.46136  Biso   1.000  C
  C20      1.0000 0.46136  0.59204  0.97330  Biso   1.000  C
  C21      1.0000 0.59204  0.97330  0.46136  Biso   1.000  C
  C22      1.0000 0.97330  0.46136  0.97330  Biso   1.000  C
  C23      1.0000 0.46136  0.97330  0.59204  Biso   1.000  C
  C24      1.0000 0.97330  0.59204  0.97330  Biso   1.000  C
  C25      1.0000 0.11148  0.38852  0.11148  Biso   1.000  C
  C26      1.0000 0.05372  0.44628  0.05372  Biso   1.000  C
  C27      1.0000 0.38852  0.11148  0.38852  Biso   1.000  C
  C28      1.0000 0.44628  0.05372  0.44628  Biso   1.000  C
  C29      1.0000 0.11148  0.11148  0.38852  Biso   1.000  C
  C30      1.0000 0.05372  0.05372  0.44628  Biso   1.000  C
  C31      1.0000 0.38852  0.38852  0.11148  Biso   1.000  C
  C32      1.0000 0.44628  0.44628  0.05372  Biso   1.000  C
  C33      1.0000 0.11148  0.38852  0.38852  Biso   1.000  C
  C34      1.0000 0.05372  0.44628  0.44628  Biso   1.000  C
  C35      1.0000 0.38852  0.11148  0.11148  Biso   1.000  C
  C36      1.0000 0.44628  0.05372  0.05372  Biso   1.000  C
  C37      1.0000 0.61148  0.88852  0.88852  Biso   1.000  C
  C38      1.0000 0.55372  0.94628  0.94628  Biso   1.000  C
  C39      1.0000 0.88852  0.61148  0.61148  Biso   1.000  C
  C40      1.0000 0.94628  0.55372  0.55372  Biso   1.000  C
  C41      1.0000 0.88852  0.88852  0.61148  Biso   1.000  C
  C42      1.0000 0.94628  0.94628  0.55372  Biso   1.000  C
  C43      1.0000 0.61148  0.61148  0.88852  Biso   1.000  C
  C44      1.0000 0.55372  0.55372  0.94628  Biso   1.000  C
  C45      1.0000 0.61148  0.88852  0.61148  Biso   1.000  C
  C46      1.0000 0.55372  0.94628  0.55372  Biso   1.000  C
  C47      1.0000 0.88852  0.61148  0.88852  Biso   1.000  C
  C48      1.0000 0.94628  0.55372  0.94628  Biso   1.000  C
  O1       1.0000 0.25000  0.25000  0.25000  Biso   1.000  O
  O2       1.0000 0.75000  0.75000  0.75000  Biso   1.000  O
  O3       1.0000 0.13373  0.42751  0.13373  Biso   1.000  O
  O4       1.0000 0.42751  0.13373  0.30503  Biso   1.000  O
  O5       1.0000 0.13373  0.30503  0.13373  Biso   1.000  O
  O6       1.0000 0.30503  0.13373  0.42751  Biso   1.000  O
  O7       1.0000 0.13373  0.13373  0.30503  Biso   1.000  O
  O8       1.0000 0.42751  0.30503  0.13373  Biso   1.000  O
  O9       1.0000 0.13373  0.13373  0.42751  Biso   1.000  O
  O10      1.0000 0.30503  0.42751  0.13373  Biso   1.000  O
  O11      1.0000 0.13373  0.30503  0.42751  Biso   1.000  O
  O12      1.0000 0.42751  0.13373  0.13373  Biso   1.000  O
  O13      1.0000 0.13373  0.42751  0.30503  Biso   1.000  O
  O14      1.0000 0.30503  0.13373  0.13373  Biso   1.000  O
  O15      1.0000 0.57249  0.86627  0.86627  Biso   1.000  O
  O16      1.0000 0.86627  0.57249  0.69497  Biso   1.000  O
  O17      1.0000 0.69497  0.86627  0.86627  Biso   1.000  O
  O18      1.0000 0.86627  0.69497  0.57249  Biso   1.000  O
  O19      1.0000 0.86627  0.86627  0.69497  Biso   1.000  O
  O20      1.0000 0.69497  0.57249  0.86627  Biso   1.000  O
  O21      1.0000 0.86627  0.86627  0.57249  Biso   1.000  O
  O22      1.0000 0.57249  0.69497  0.86627  Biso   1.000  O
  O23      1.0000 0.69497  0.86627  0.57249  Biso   1.000  O
  O24      1.0000 0.86627  0.57249  0.86627  Biso   1.000  O
  O25      1.0000 0.57249  0.86627  0.69497  Biso   1.000  O
  O26      1.0000 0.86627  0.69497  0.86627  Biso   1.000  O
  Zn9      1.0000 0.00000  0.00000  0.00000  Biso   1.000  Zn
  Zn10     1.0000 1.00000  0.17394  0.00000  Biso   1.000  Zn
  Zn11     1.0000 0.82606  0.17394  0.00000  Biso   1.000  Zn
  Zn12     1.0000 1.00000  0.17394  0.82606  Biso   1.000  Zn
  Zn13     1.0000 0.41523  0.58624  0.41230  Biso   1.000  Zn
  Zn14     1.0000 0.41523  0.76019  0.41230  Biso   1.000  Zn
  Zn15     1.0000 0.58918  0.58624  0.41230  Biso   1.000  Zn
  Zn16     1.0000 0.41523  0.58624  0.58624  Biso   1.000  Zn
  H25      1.0000 0.86228  0.81430  0.16172  Biso   1.000  H
  H26      1.0000 0.16172  0.33566  0.86228  Biso   1.000  H
  H27      1.0000 0.64035  0.03622  0.16172  Biso   1.000  H
  H28      1.0000 0.16172  0.33566  0.64035  Biso   1.000  H
  H29      1.0000 0.64035  0.33566  0.86228  Biso   1.000  H
  H30      1.0000 0.16172  0.03622  0.16172  Biso   1.000  H
  H31      1.0000 0.86228  0.33566  0.64035  Biso   1.000  H
  H32      1.0000 0.16172  0.81430  0.16172  Biso   1.000  H
  H33      1.0000 0.16172  0.03622  0.64035  Biso   1.000  H
  H34      1.0000 0.86228  0.33566  0.16172  Biso   1.000  H
  H35      1.0000 0.16172  0.81430  0.86228  Biso   1.000  H
  H36      1.0000 0.64035  0.33566  0.16172  Biso   1.000  H
  H37      1.0000 0.55295  0.42453  0.25058  Biso   1.000  H
  H38      1.0000 0.25351  0.94589  0.55002  Biso   1.000  H
  H39      1.0000 0.77488  0.42453  0.25058  Biso   1.000  H
  H40      1.0000 0.25351  0.72397  0.77195  Biso   1.000  H
  H41      1.0000 0.77488  0.42453  0.55002  Biso   1.000  H
  H42      1.0000 0.25351  0.94589  0.25058  Biso   1.000  H
  H43      1.0000 0.55295  0.42453  0.77195  Biso   1.000  H
  H44      1.0000 0.25351  0.72397  0.25058  Biso   1.000  H
  H45      1.0000 0.25351  0.42453  0.77195  Biso   1.000  H
  H46      1.0000 0.55295  0.94589  0.25058  Biso   1.000  H
  H47      1.0000 0.25351  0.42453  0.55002  Biso   1.000  H
  H48      1.0000 0.77488  0.72397  0.25058  Biso   1.000  H
  C49      1.0000 0.79898  0.84089  0.18007  Biso   1.000  C
  C50      1.0000 0.18007  0.35402  0.79898  Biso   1.000  C
  C51      1.0000 0.66694  0.97292  0.18007  Biso   1.000  C
  C52      1.0000 0.18007  0.35402  0.66694  Biso   1.000  C
  C53      1.0000 0.66694  0.35402  0.79898  Biso   1.000  C
  C54      1.0000 0.18007  0.97292  0.18007  Biso   1.000  C
  C55      1.0000 0.79898  0.35402  0.66694  Biso   1.000  C
  C56      1.0000 0.18007  0.84089  0.18007  Biso   1.000  C
  C57      1.0000 0.18007  0.97292  0.66694  Biso   1.000  C
  C58      1.0000 0.79898  0.35402  0.18007  Biso   1.000  C
  C59      1.0000 0.18007  0.84089  0.79898  Biso   1.000  C
  C60      1.0000 0.66694  0.35402  0.18007  Biso   1.000  C
  C61      1.0000 0.61626  0.40617  0.23223  Biso   1.000  C
  C62      1.0000 0.23516  0.91930  0.61332  Biso   1.000  C
  C63      1.0000 0.74829  0.40617  0.23223  Biso   1.000  C
  C64      1.0000 0.23516  0.78727  0.74536  Biso   1.000  C
  C65      1.0000 0.74829  0.40617  0.61332  Biso   1.000  C
  C66      1.0000 0.23516  0.91930  0.23223  Biso   1.000  C
  C67      1.0000 0.61626  0.40617  0.74536  Biso   1.000  C
  C68      1.0000 0.23516  0.78727  0.23223  Biso   1.000  C
  C69      1.0000 0.23516  0.40617  0.74536  Biso   1.000  C
  C70      1.0000 0.61626  0.91930  0.23223  Biso   1.000  C
  C71      1.0000 0.23516  0.40617  0.61332  Biso   1.000  C
  C72      1.0000 0.74829  0.78727  0.23223  Biso   1.000  C
  C73      1.0000 0.81785  0.99180  0.09518  Biso   1.000  C
  C74      1.0000 0.75996  0.93390  0.15307  Biso   1.000  C
  C75      1.0000 0.09518  0.26912  0.81785  Biso   1.000  C
  C76      1.0000 0.15307  0.32702  0.75996  Biso   1.000  C
  C77      1.0000 0.81785  0.26912  0.81785  Biso   1.000  C
  C78      1.0000 0.75996  0.32702  0.75996  Biso   1.000  C
  C79      1.0000 0.09518  0.99180  0.09518  Biso   1.000  C
  C80      1.0000 0.15307  0.93390  0.15307  Biso   1.000  C
  C81      1.0000 0.09518  0.99180  0.81785  Biso   1.000  C
  C82      1.0000 0.15307  0.93390  0.75996  Biso   1.000  C
  C83      1.0000 0.81785  0.26912  0.09518  Biso   1.000  C
  C84      1.0000 0.75996  0.32702  0.15307  Biso   1.000  C
  C85      1.0000 0.59738  0.49106  0.31712  Biso   1.000  C
  C86      1.0000 0.65527  0.43317  0.25923  Biso   1.000  C
  C87      1.0000 0.32005  0.76839  0.59445  Biso   1.000  C
  C88      1.0000 0.26216  0.82629  0.65234  Biso   1.000  C
  C89      1.0000 0.59738  0.49106  0.59445  Biso   1.000  C
  C90      1.0000 0.65527  0.43317  0.65234  Biso   1.000  C
  C91      1.0000 0.32005  0.76839  0.31712  Biso   1.000  C
  C92      1.0000 0.26216  0.82629  0.25923  Biso   1.000  C
  C93      1.0000 0.32005  0.49106  0.59445  Biso   1.000  C
  C94      1.0000 0.26216  0.43317  0.65234  Biso   1.000  C
  C95      1.0000 0.59738  0.76839  0.31712  Biso   1.000  C
  C96      1.0000 0.65527  0.82629  0.25923  Biso   1.000  C
  O27      1.0000 0.95652  0.13046  0.95652  Biso   1.000  O
  O28      1.0000 0.45872  0.62973  0.45578  Biso   1.000  O
  O29      1.0000 0.90154  0.95254  0.07297  Biso   1.000  O
  O30      1.0000 0.07297  0.24691  0.90154  Biso   1.000  O
  O31      1.0000 0.77860  0.07548  0.07297  Biso   1.000  O
  O32      1.0000 0.07297  0.24691  0.77860  Biso   1.000  O
  O33      1.0000 0.77860  0.24691  0.90154  Biso   1.000  O
  O34      1.0000 0.07297  0.07548  0.07297  Biso   1.000  O
  O35      1.0000 0.90154  0.24691  0.77860  Biso   1.000  O
  O36      1.0000 0.07297  0.95254  0.07297  Biso   1.000  O
  O37      1.0000 0.07297  0.07548  0.77860  Biso   1.000  O
  O38      1.0000 0.90154  0.24691  0.07297  Biso   1.000  O
  O39      1.0000 0.07297  0.95254  0.90154  Biso   1.000  O
  O40      1.0000 0.77860  0.24691  0.07297  Biso   1.000  O
  O41      1.0000 0.51370  0.51328  0.33933  Biso   1.000  O
  O42      1.0000 0.34226  0.80765  0.51076  Biso   1.000  O
  O43      1.0000 0.63664  0.51328  0.33933  Biso   1.000  O
  O44      1.0000 0.34226  0.68471  0.63370  Biso   1.000  O
  O45      1.0000 0.63664  0.51328  0.51076  Biso   1.000  O
  O46      1.0000 0.34226  0.80765  0.33933  Biso   1.000  O
  O47      1.0000 0.51370  0.51328  0.63370  Biso   1.000  O
  O48      1.0000 0.34226  0.68471  0.33933  Biso   1.000  O
  O49      1.0000 0.34226  0.51328  0.63370  Biso   1.000  O
  O50      1.0000 0.51370  0.80765  0.33933  Biso   1.000  O
  O51      1.0000 0.34226  0.51328  0.51076  Biso   1.000  O
