data_image0
_cell_length_a       18.2943
_cell_length_b       18.2943
_cell_length_c       18.2943
_cell_angle_alpha    60
_cell_angle_beta     60
_cell_angle_gamma    60

_symmetry_space_group_name_H-M    "P 1"
_symmetry_int_tables_number       1

loop_
  _symmetry_equiv_pos_as_xyz
  'x, y, z'

loop_
  _atom_site_label
  _atom_site_occupancy
  _atom_site_fract_x
  _atom_site_fract_y
  _atom_site_fract_z
  _atom_site_thermal_displace_type
  _atom_site_B_iso_or_equiv
  _atom_site_type_symbol
  C1       1.0000 0.20660  0.38020  0.20660  Biso   1.000  C
  C2       1.0000 0.38020  0.20660  0.20660  Biso   1.000  C
  C3       1.0000 0.20660  0.20660  0.20660  Biso   1.000  C
  C4       1.0000 0.20660  0.20660  0.38020  Biso   1.000  C
  C5       1.0000 0.61980  0.79340  0.79340  Biso   1.000  C
  C6       1.0000 0.79340  0.61980  0.79340  Biso   1.000  C
  C7       1.0000 0.79340  0.79340  0.79340  Biso   1.000  C
  C8       1.0000 0.79340  0.79340  0.61980  Biso   1.000  C
  C9       1.0000 0.04510  0.56550  0.04510  Biso   1.000  C
  C10      1.0000 0.56550  0.04510  0.34430  Biso   1.000  C
  C11      1.0000 0.04510  0.34430  0.04510  Biso   1.000  C
  C12      1.0000 0.34430  0.04510  0.56550  Biso   1.000  C
  C13      1.0000 0.04510  0.04510  0.34430  Biso   1.000  C
  C14      1.0000 0.56550  0.34430  0.04510  Biso   1.000  C
  C15      1.0000 0.04510  0.04510  0.56550  Biso   1.000  C
  C16      1.0000 0.34430  0.56550  0.04510  Biso   1.000  C
  C17      1.0000 0.04510  0.34430  0.56550  Biso   1.000  C
  C18      1.0000 0.56550  0.04510  0.04510  Biso   1.000  C
  C19      1.0000 0.04510  0.56550  0.34430  Biso   1.000  C
  C20      1.0000 0.34430  0.04510  0.04510  Biso   1.000  C
  C21      1.0000 0.43450  0.95490  0.95490  Biso   1.000  C
  C22      1.0000 0.95490  0.43450  0.65570  Biso   1.000  C
  C23      1.0000 0.65570  0.95490  0.95490  Biso   1.000  C
  C24      1.0000 0.95490  0.65570  0.43450  Biso   1.000  C
  C25      1.0000 0.95490  0.95490  0.65570  Biso   1.000  C
  C26      1.0000 0.65570  0.43450  0.95490  Biso   1.000  C
  C27      1.0000 0.95490  0.95490  0.43450  Biso   1.000  C
  C28      1.0000 0.43450  0.65570  0.95490  Biso   1.000  C
  C29      1.0000 0.65570  0.95490  0.43450  Biso   1.000  C
  C30      1.0000 0.95490  0.43450  0.95490  Biso   1.000  C
  C31      1.0000 0.43450  0.95490  0.65570  Biso   1.000  C
  C32      1.0000 0.95490  0.65570  0.95490  Biso   1.000  C
  C33      1.0000 0.02675  0.53889  0.02675  Biso   1.000  C
  C34      1.0000 0.53889  0.02675  0.40761  Biso   1.000  C
  C35      1.0000 0.02675  0.40761  0.02675  Biso   1.000  C
  C36      1.0000 0.40761  0.02675  0.53889  Biso   1.000  C
  C37      1.0000 0.02675  0.02675  0.40761  Biso   1.000  C
  C38      1.0000 0.53889  0.40761  0.02675  Biso   1.000  C
  C39      1.0000 0.02675  0.02675  0.53889  Biso   1.000  C
  C40      1.0000 0.40761  0.53889  0.02675  Biso   1.000  C
  C41      1.0000 0.02675  0.40761  0.53889  Biso   1.000  C
  C42      1.0000 0.53889  0.02675  0.02675  Biso   1.000  C
  C43      1.0000 0.02675  0.53889  0.40761  Biso   1.000  C
  C44      1.0000 0.40761  0.02675  0.02675  Biso   1.000  C
  C45      1.0000 0.46111  0.97325  0.97325  Biso   1.000  C
  C46      1.0000 0.97325  0.46111  0.59239  Biso   1.000  C
  C47      1.0000 0.59239  0.97325  0.97325  Biso   1.000  C
  C48      1.0000 0.97325  0.59239  0.46111  Biso   1.000  C
  C49      1.0000 0.97325  0.97325  0.59239  Biso   1.000  C
  C50      1.0000 0.59239  0.46111  0.97325  Biso   1.000  C
  C51      1.0000 0.97325  0.97325  0.46111  Biso   1.000  C
  C52      1.0000 0.46111  0.59239  0.97325  Biso   1.000  C
  C53      1.0000 0.59239  0.97325  0.46111  Biso   1.000  C
  C54      1.0000 0.97325  0.46111  0.97325  Biso   1.000  C
  C55      1.0000 0.46111  0.97325  0.59239  Biso   1.000  C
  C56      1.0000 0.97325  0.59239  0.97325  Biso   1.000  C
  C57      1.0000 0.11147  0.38853  0.11147  Biso   1.000  C
  C58      1.0000 0.05374  0.44626  0.05374  Biso   1.000  C
  C59      1.0000 0.38853  0.11147  0.38853  Biso   1.000  C
  C60      1.0000 0.44626  0.05374  0.44626  Biso   1.000  C
  C61      1.0000 0.11147  0.11147  0.38853  Biso   1.000  C
  C62      1.0000 0.05374  0.05374  0.44626  Biso   1.000  C
  C63      1.0000 0.38853  0.38853  0.11147  Biso   1.000  C
  C64      1.0000 0.44626  0.44626  0.05374  Biso   1.000  C
  C65      1.0000 0.11147  0.38853  0.38853  Biso   1.000  C
  C66      1.0000 0.05374  0.44626  0.44626  Biso   1.000  C
  C67      1.0000 0.38853  0.11147  0.11147  Biso   1.000  C
  C68      1.0000 0.44626  0.05374  0.05374  Biso   1.000  C
  C69      1.0000 0.61147  0.88853  0.88853  Biso   1.000  C
  C70      1.0000 0.55374  0.94626  0.94626  Biso   1.000  C
  C71      1.0000 0.88853  0.61147  0.61147  Biso   1.000  C
  C72      1.0000 0.94626  0.55374  0.55374  Biso   1.000  C
  C73      1.0000 0.88853  0.88853  0.61147  Biso   1.000  C
  C74      1.0000 0.94626  0.94626  0.55374  Biso   1.000  C
  C75      1.0000 0.61147  0.61147  0.88853  Biso   1.000  C
  C76      1.0000 0.55374  0.55374  0.94626  Biso   1.000  C
  C77      1.0000 0.61147  0.88853  0.61147  Biso   1.000  C
  C78      1.0000 0.55374  0.94626  0.55374  Biso   1.000  C
  C79      1.0000 0.88853  0.61147  0.88853  Biso   1.000  C
  C80      1.0000 0.94626  0.55374  0.94626  Biso   1.000  C
  C81      1.0000 0.25000  0.25000  0.25000  Biso   1.000  C
  C82      1.0000 0.75000  0.75000  0.75000  Biso   1.000  C
  C83      1.0000 0.13372  0.42764  0.13372  Biso   1.000  C
  C84      1.0000 0.42764  0.13372  0.30492  Biso   1.000  C
  C85      1.0000 0.13372  0.30492  0.13372  Biso   1.000  C
  C86      1.0000 0.30492  0.13372  0.42764  Biso   1.000  C
  C87      1.0000 0.13372  0.13372  0.30492  Biso   1.000  C
  C88      1.0000 0.42764  0.30492  0.13372  Biso   1.000  C
  C89      1.0000 0.13372  0.13372  0.42764  Biso   1.000  C
  C90      1.0000 0.30492  0.42764  0.13372  Biso   1.000  C
  C91      1.0000 0.13372  0.30492  0.42764  Biso   1.000  C
  C92      1.0000 0.42764  0.13372  0.13372  Biso   1.000  C
  C93      1.0000 0.13372  0.42764  0.30492  Biso   1.000  C
  C94      1.0000 0.30492  0.13372  0.13372  Biso   1.000  C
  C95      1.0000 0.57236  0.86628  0.86628  Biso   1.000  C
  C96      1.0000 0.86628  0.57236  0.69508  Biso   1.000  C
  C97      1.0000 0.69508  0.86628  0.86628  Biso   1.000  C
  C98      1.0000 0.86628  0.69508  0.57236  Biso   1.000  C
  C99      1.0000 0.86628  0.86628  0.69508  Biso   1.000  C
  C100     1.0000 0.69508  0.57236  0.86628  Biso   1.000  C
  C101     1.0000 0.86628  0.86628  0.57236  Biso   1.000  C
  C102     1.0000 0.57236  0.69508  0.86628  Biso   1.000  C
  C103     1.0000 0.69508  0.86628  0.57236  Biso   1.000  C
  C104     1.0000 0.86628  0.57236  0.86628  Biso   1.000  C
  C105     1.0000 0.57236  0.86628  0.69508  Biso   1.000  C
  C106     1.0000 0.86628  0.69508  0.86628  Biso   1.000  C
  O1       1.0000 0.99188  0.97226  0.87031  Biso   1.000  O
  O2       1.0000 0.99193  0.14418  0.87026  Biso   1.000  O
  O3       1.0000 0.16385  0.97226  0.87031  Biso   1.000  O
  O4       1.0000 0.99193  0.97221  0.04223  Biso   1.000  O
  O5       1.0000 0.57398  0.56213  0.46019  Biso   1.000  O
  O6       1.0000 0.57393  0.39021  0.46024  Biso   1.000  O
  O7       1.0000 0.40201  0.56213  0.46019  Biso   1.000  O
  O8       1.0000 0.57393  0.56218  0.28827  Biso   1.000  O
  O9       1.0000 0.81287  0.17157  0.69225  Biso   1.000  O
  O10      1.0000 0.19146  0.79398  0.69025  Biso   1.000  O
  O11      1.0000 0.81227  0.79498  0.06963  Biso   1.000  O
  O12      1.0000 0.81388  0.30982  0.69125  Biso   1.000  O
  O13      1.0000 0.81189  0.31083  0.06983  Biso   1.000  O
  O14      1.0000 0.19127  0.30963  0.69065  Biso   1.000  O
  O15      1.0000 0.32161  0.79419  0.06962  Biso   1.000  O
  O16      1.0000 0.32261  0.79220  0.69204  Biso   1.000  O
  O17      1.0000 0.32142  0.17158  0.69303  Biso   1.000  O
  O18      1.0000 0.18336  0.79320  0.20788  Biso   1.000  O
  O19      1.0000 0.80576  0.17178  0.20888  Biso   1.000  O
  O20      1.0000 0.80676  0.79259  0.20769  Biso   1.000  O
  O21      1.0000 0.75299  0.36282  0.63826  Biso   1.000  O
  O22      1.0000 0.37440  0.74041  0.64025  Biso   1.000  O
  O23      1.0000 0.75359  0.73941  0.26087  Biso   1.000  O
  O24      1.0000 0.75198  0.22457  0.63925  Biso   1.000  O
  O25      1.0000 0.75397  0.22357  0.26067  Biso   1.000  O
  O26      1.0000 0.37459  0.22476  0.63985  Biso   1.000  O
  O27      1.0000 0.24425  0.74020  0.26088  Biso   1.000  O
  O28      1.0000 0.24325  0.74219  0.63846  Biso   1.000  O
  O29      1.0000 0.24444  0.36281  0.63747  Biso   1.000  O
  O30      1.0000 0.38250  0.74120  0.12262  Biso   1.000  O
  O31      1.0000 0.76010  0.36261  0.12162  Biso   1.000  O
  O32      1.0000 0.75910  0.74180  0.12281  Biso   1.000  O
  O33      1.0000 0.84024  0.20988  0.71863  Biso   1.000  O
  O34      1.0000 0.89846  0.15166  0.77684  Biso   1.000  O
  O35      1.0000 0.22955  0.82058  0.10793  Biso   1.000  O
  O36      1.0000 0.17133  0.87879  0.04971  Biso   1.000  O
  O37      1.0000 0.72562  0.32451  0.61188  Biso   1.000  O
  O38      1.0000 0.66740  0.38273  0.55366  Biso   1.000  O
  O39      1.0000 0.33631  0.71382  0.22257  Biso   1.000  O
  O40      1.0000 0.39453  0.65560  0.28079  Biso   1.000  O
  O41      1.0000 0.84005  0.82038  0.10813  Biso   1.000  O
  O42      1.0000 0.89799  0.87832  0.05019  Biso   1.000  O
  O43      1.0000 0.22974  0.21008  0.71843  Biso   1.000  O
  O44      1.0000 0.17181  0.15214  0.77637  Biso   1.000  O
  O45      1.0000 0.72581  0.71401  0.22238  Biso   1.000  O
  O46      1.0000 0.66787  0.65608  0.28031  Biso   1.000  O
  O47      1.0000 0.33612  0.32431  0.61207  Biso   1.000  O
  O48      1.0000 0.39405  0.38225  0.55413  Biso   1.000  O
  O49      1.0000 0.22995  0.82018  0.71823  Biso   1.000  O
  O50      1.0000 0.17201  0.87812  0.77617  Biso   1.000  O
  O51      1.0000 0.83984  0.21028  0.10832  Biso   1.000  O
  O52      1.0000 0.89779  0.15234  0.05039  Biso   1.000  O
  O53      1.0000 0.33591  0.71422  0.61227  Biso   1.000  O
  O54      1.0000 0.39385  0.65628  0.55433  Biso   1.000  O
  O55      1.0000 0.72602  0.32411  0.22218  Biso   1.000  O
  O56      1.0000 0.66807  0.38205  0.28012  Biso   1.000  O
  O57      1.0000 0.92088  0.06809  0.79768  Biso   1.000  O
  O58      1.0000 0.91896  0.90121  0.96697  Biso   1.000  O
  O59      1.0000 0.08734  0.90085  0.79809  Biso   1.000  O
  O60      1.0000 0.91929  0.19198  0.79926  Biso   1.000  O
  O61      1.0000 0.08859  0.19149  0.79734  Biso   1.000  O
  O62      1.0000 0.91971  0.19234  0.96572  Biso   1.000  O
  O63      1.0000 0.21165  0.89963  0.96614  Biso   1.000  O
  O64      1.0000 0.21115  0.06892  0.79926  Biso   1.000  O
  O65      1.0000 0.21201  0.90004  0.79891  Biso   1.000  O
  O66      1.0000 0.08776  0.90121  0.09003  Biso   1.000  O
  O67      1.0000 0.92089  0.89929  0.08953  Biso   1.000  O
  O68      1.0000 0.92053  0.06767  0.09039  Biso   1.000  O
  O69      1.0000 0.64498  0.46631  0.53282  Biso   1.000  O
  O70      1.0000 0.64690  0.63318  0.36353  Biso   1.000  O
  O71      1.0000 0.47852  0.63354  0.53241  Biso   1.000  O
  O72      1.0000 0.64657  0.34241  0.53124  Biso   1.000  O
  O73      1.0000 0.47727  0.34291  0.53316  Biso   1.000  O
  O74      1.0000 0.64615  0.34205  0.36478  Biso   1.000  O
  O75      1.0000 0.35421  0.63477  0.36437  Biso   1.000  O
  O76      1.0000 0.35471  0.46547  0.53124  Biso   1.000  O
  O77      1.0000 0.35385  0.63435  0.53159  Biso   1.000  O
  O78      1.0000 0.47810  0.63318  0.24047  Biso   1.000  O
  O79      1.0000 0.64497  0.63510  0.24097  Biso   1.000  O
  O80      1.0000 0.64533  0.46672  0.24011  Biso   1.000  O
  O81      1.0000 0.03490  0.01523  0.91328  Biso   1.000  O
  O82      1.0000 0.53096  0.51916  0.41722  Biso   1.000  O
  O83      1.0000 0.11546  0.81675  0.71155  Biso   1.000  O
  O84      1.0000 0.35454  0.81350  0.71481  Biso   1.000  O
  O85      1.0000 0.45040  0.71764  0.61895  Biso   1.000  O
  O86      1.0000 0.21132  0.72089  0.61569  Biso   1.000  O
  O87      1.0000 0.35334  0.09560  0.71605  Biso   1.000  O
  O88      1.0000 0.45058  0.19283  0.61881  Biso   1.000  O
  O89      1.0000 0.83332  0.81799  0.99365  Biso   1.000  O
  O90      1.0000 0.73608  0.72076  0.09088  Biso   1.000  O
  O91      1.0000 0.83632  0.34176  0.71287  Biso   1.000  O
  O92      1.0000 0.83319  0.34275  0.99384  Biso   1.000  O
  O93      1.0000 0.45850  0.71958  0.09068  Biso   1.000  O
  O94      1.0000 0.73733  0.43861  0.08969  Biso   1.000  O
  O95      1.0000 0.11528  0.34156  0.71169  Biso   1.000  O
  O96      1.0000 0.21252  0.43879  0.61445  Biso   1.000  O
  O97      1.0000 0.82978  0.81363  0.23962  Biso   1.000  O
  O98      1.0000 0.73254  0.71640  0.33685  Biso   1.000  O
  O99      1.0000 0.21231  0.71776  0.33687  Biso   1.000  O
  O100     1.0000 0.82853  0.09578  0.24081  Biso   1.000  O
  O101     1.0000 0.73267  0.19164  0.33667  Biso   1.000  O
  O102     1.0000 0.10736  0.81481  0.23982  Biso   1.000  O
  O103     1.0000 0.72954  0.19263  0.61763  Biso   1.000  O
  O104     1.0000 0.83449  0.09558  0.71469  Biso   1.000  O
  O105     1.0000 0.73137  0.43881  0.61581  Biso   1.000  O
