data_image0
_cell_length_a       18.3063
_cell_length_b       18.3063
_cell_length_c       18.3063
_cell_angle_alpha    60
_cell_angle_beta     60
_cell_angle_gamma    60

_symmetry_space_group_name_H-M    "P 1"
_symmetry_int_tables_number       1

loop_
  _symmetry_equiv_pos_as_xyz
  'x, y, z'

loop_
  _atom_site_label
  _atom_site_occupancy
  _atom_site_fract_x
  _atom_site_fract_y
  _atom_site_fract_z
  _atom_site_thermal_displace_type
  _atom_site_B_iso_or_equiv
  _atom_site_type_symbol
  Zn1      1.0000 0.20664  0.38006  0.20665  Biso   1.000  Zn
  Zn2      1.0000 0.38005  0.20665  0.20665  Biso   1.000  Zn
  Zn3      1.0000 0.20664  0.20665  0.20665  Biso   1.000  Zn
  Zn4      1.0000 0.20664  0.20665  0.38006  Biso   1.000  Zn
  Zn5      1.0000 0.61995  0.79335  0.79335  Biso   1.000  Zn
  Zn6      1.0000 0.79336  0.61994  0.79335  Biso   1.000  Zn
  Zn7      1.0000 0.79336  0.79335  0.79335  Biso   1.000  Zn
  Zn8      1.0000 0.79336  0.79335  0.61994  Biso   1.000  Zn
  H1       1.0000 0.04520  0.56560  0.04520  Biso   1.000  H
  H2       1.0000 0.56560  0.04520  0.34400  Biso   1.000  H
  H3       1.0000 0.04520  0.34400  0.04520  Biso   1.000  H
  H4       1.0000 0.34400  0.04520  0.56560  Biso   1.000  H
  H5       1.0000 0.04520  0.04520  0.34400  Biso   1.000  H
  H6       1.0000 0.56560  0.34400  0.04520  Biso   1.000  H
  H7       1.0000 0.04520  0.04520  0.56560  Biso   1.000  H
  H8       1.0000 0.34400  0.56560  0.04520  Biso   1.000  H
  H9       1.0000 0.04520  0.34400  0.56560  Biso   1.000  H
  H10      1.0000 0.56560  0.04520  0.04520  Biso   1.000  H
  H11      1.0000 0.04520  0.56560  0.34400  Biso   1.000  H
  H12      1.0000 0.34400  0.04520  0.04520  Biso   1.000  H
  H13      1.0000 0.43440  0.95480  0.95480  Biso   1.000  H
  H14      1.0000 0.95480  0.43440  0.65600  Biso   1.000  H
  H15      1.0000 0.65600  0.95480  0.95480  Biso   1.000  H
  H16      1.0000 0.95480  0.65600  0.43440  Biso   1.000  H
  H17      1.0000 0.95480  0.95480  0.65600  Biso   1.000  H
  H18      1.0000 0.65600  0.43440  0.95480  Biso   1.000  H
  H19      1.0000 0.95480  0.95480  0.43440  Biso   1.000  H
  H20      1.0000 0.43440  0.65600  0.95480  Biso   1.000  H
  H21      1.0000 0.65600  0.95480  0.43440  Biso   1.000  H
  H22      1.0000 0.95480  0.43440  0.95480  Biso   1.000  H
  H23      1.0000 0.43440  0.95480  0.65600  Biso   1.000  H
  H24      1.0000 0.95480  0.65600  0.95480  Biso   1.000  H
  C1       1.0000 0.02683  0.53905  0.02683  Biso   1.000  C
  C2       1.0000 0.53905  0.02683  0.40729  Biso   1.000  C
  C3       1.0000 0.02683  0.40729  0.02683  Biso   1.000  C
  C4       1.0000 0.40729  0.02683  0.53905  Biso   1.000  C
  C5       1.0000 0.02683  0.02683  0.40729  Biso   1.000  C
  C6       1.0000 0.53905  0.40729  0.02683  Biso   1.000  C
  C7       1.0000 0.02683  0.02683  0.53905  Biso   1.000  C
  C8       1.0000 0.40729  0.53905  0.02683  Biso   1.000  C
  C9       1.0000 0.02683  0.40729  0.53905  Biso   1.000  C
  C10      1.0000 0.53905  0.02683  0.02683  Biso   1.000  C
  C11      1.0000 0.02683  0.53905  0.40729  Biso   1.000  C
  C12      1.0000 0.40729  0.02683  0.02683  Biso   1.000  C
  C13      1.0000 0.46095  0.97317  0.97317  Biso   1.000  C
  C14      1.0000 0.97317  0.46095  0.59271  Biso   1.000  C
  C15      1.0000 0.59271  0.97317  0.97317  Biso   1.000  C
  C16      1.0000 0.97317  0.59271  0.46095  Biso   1.000  C
  C17      1.0000 0.97317  0.97317  0.59271  Biso   1.000  C
  C18      1.0000 0.59271  0.46095  0.97317  Biso   1.000  C
  C19      1.0000 0.97317  0.97317  0.46095  Biso   1.000  C
  C20      1.0000 0.46095  0.59271  0.97317  Biso   1.000  C
  C21      1.0000 0.59271  0.97317  0.46095  Biso   1.000  C
  C22      1.0000 0.97317  0.46095  0.97317  Biso   1.000  C
  C23      1.0000 0.46095  0.97317  0.59271  Biso   1.000  C
  C24      1.0000 0.97317  0.59271  0.97317  Biso   1.000  C
  C25      1.0000 0.11144  0.38856  0.11144  Biso   1.000  C
  C26      1.0000 0.05381  0.44619  0.05381  Biso   1.000  C
  C27      1.0000 0.38856  0.11144  0.38856  Biso   1.000  C
  C28      1.0000 0.44619  0.05381  0.44619  Biso   1.000  C
  C29      1.0000 0.11144  0.11144  0.38856  Biso   1.000  C
  C30      1.0000 0.05381  0.05381  0.44619  Biso   1.000  C
  C31      1.0000 0.38856  0.38856  0.11144  Biso   1.000  C
  C32      1.0000 0.44619  0.44619  0.05381  Biso   1.000  C
  C33      1.0000 0.11144  0.38856  0.38856  Biso   1.000  C
  C34      1.0000 0.05381  0.44619  0.44619  Biso   1.000  C
  C35      1.0000 0.38856  0.11144  0.11144  Biso   1.000  C
  C36      1.0000 0.44619  0.05381  0.05381  Biso   1.000  C
  C37      1.0000 0.61144  0.88856  0.88856  Biso   1.000  C
  C38      1.0000 0.55381  0.94619  0.94619  Biso   1.000  C
  C39      1.0000 0.88856  0.61144  0.61144  Biso   1.000  C
  C40      1.0000 0.94619  0.55381  0.55381  Biso   1.000  C
  C41      1.0000 0.88856  0.88856  0.61144  Biso   1.000  C
  C42      1.0000 0.94619  0.94619  0.55381  Biso   1.000  C
  C43      1.0000 0.61144  0.61144  0.88856  Biso   1.000  C
  C44      1.0000 0.55381  0.55381  0.94619  Biso   1.000  C
  C45      1.0000 0.61144  0.88856  0.61144  Biso   1.000  C
  C46      1.0000 0.55381  0.94619  0.55381  Biso   1.000  C
  C47      1.0000 0.88856  0.61144  0.88856  Biso   1.000  C
  C48      1.0000 0.94619  0.55381  0.94619  Biso   1.000  C
  O1       1.0000 0.25000  0.25000  0.25000  Biso   1.000  O
  O2       1.0000 0.75000  0.75000  0.75000  Biso   1.000  O
  O3       1.0000 0.13368  0.42768  0.13368  Biso   1.000  O
  O4       1.0000 0.42768  0.13368  0.30496  Biso   1.000  O
  O5       1.0000 0.13368  0.30496  0.13368  Biso   1.000  O
  O6       1.0000 0.30496  0.13368  0.42768  Biso   1.000  O
  O7       1.0000 0.13368  0.13368  0.30496  Biso   1.000  O
  O8       1.0000 0.42768  0.30496  0.13368  Biso   1.000  O
  O9       1.0000 0.13368  0.13368  0.42768  Biso   1.000  O
  O10      1.0000 0.30496  0.42768  0.13368  Biso   1.000  O
  O11      1.0000 0.13368  0.30496  0.42768  Biso   1.000  O
  O12      1.0000 0.42768  0.13368  0.13368  Biso   1.000  O
  O13      1.0000 0.13368  0.42768  0.30496  Biso   1.000  O
  O14      1.0000 0.30496  0.13368  0.13368  Biso   1.000  O
  O15      1.0000 0.57232  0.86632  0.86632  Biso   1.000  O
  O16      1.0000 0.86632  0.57232  0.69504  Biso   1.000  O
  O17      1.0000 0.69504  0.86632  0.86632  Biso   1.000  O
  O18      1.0000 0.86632  0.69504  0.57232  Biso   1.000  O
  O19      1.0000 0.86632  0.86632  0.69504  Biso   1.000  O
  O20      1.0000 0.69504  0.57232  0.86632  Biso   1.000  O
  O21      1.0000 0.86632  0.86632  0.57232  Biso   1.000  O
  O22      1.0000 0.57232  0.69504  0.86632  Biso   1.000  O
  O23      1.0000 0.69504  0.86632  0.57232  Biso   1.000  O
  O24      1.0000 0.86632  0.57232  0.86632  Biso   1.000  O
  O25      1.0000 0.57232  0.86632  0.69504  Biso   1.000  O
  O26      1.0000 0.86632  0.69504  0.86632  Biso   1.000  O
  Zn9      1.0000 0.85250  0.01847  0.13381  Biso   1.000  Zn
  Zn10     1.0000 0.43339  0.59936  0.54160  Biso   1.000  Zn
  Zn11     1.0000 0.60663  0.42613  0.54160  Biso   1.000  Zn
  Zn12     1.0000 0.02574  0.84524  0.13381  Biso   1.000  Zn
  Zn13     1.0000 0.02582  0.01855  0.96037  Biso   1.000  Zn
  Zn14     1.0000 0.02556  0.01830  0.13393  Biso   1.000  Zn
  Zn15     1.0000 0.43331  0.42605  0.71504  Biso   1.000  Zn
  Zn16     1.0000 0.43357  0.42631  0.54147  Biso   1.000  Zn
  H25      1.0000 0.88821  0.17482  0.76646  Biso   1.000  H
  H26      1.0000 0.65753  0.17328  0.99774  Biso   1.000  H
  H27      1.0000 0.65554  0.88236  0.28777  Biso   1.000  H
  H28      1.0000 0.27705  0.56365  0.90894  Biso   1.000  H
  H29      1.0000 0.27859  0.79434  0.67767  Biso   1.000  H
  H30      1.0000 0.56951  0.79633  0.38764  Biso   1.000  H
  H31      1.0000 0.57092  0.26979  0.90894  Biso   1.000  H
  H32      1.0000 0.80160  0.27133  0.67767  Biso   1.000  H
  H33      1.0000 0.80359  0.56224  0.38764  Biso   1.000  H
  H34      1.0000 0.18208  0.88095  0.76646  Biso   1.000  H
  H35      1.0000 0.18054  0.65027  0.99774  Biso   1.000  H
  H36      1.0000 0.88962  0.64827  0.28777  Biso   1.000  H
  C49      1.0000 0.85543  0.10644  0.95591  Biso   1.000  C
  C50      1.0000 0.78632  0.17081  0.89678  Biso   1.000  C
  C51      1.0000 0.82493  0.19617  0.79277  Biso   1.000  C
  C52      1.0000 0.68453  0.19474  0.93465  Biso   1.000  C
  C53      1.0000 0.85185  0.10583  0.22102  Biso   1.000  C
  C54      1.0000 0.68154  0.81937  0.31140  Biso   1.000  C
  C55      1.0000 0.34543  0.59644  0.71950  Biso   1.000  C
  C56      1.0000 0.28105  0.66555  0.77863  Biso   1.000  C
  C57      1.0000 0.25569  0.62694  0.88264  Biso   1.000  C
  C58      1.0000 0.25713  0.76734  0.74076  Biso   1.000  C
  C59      1.0000 0.34604  0.60001  0.45439  Biso   1.000  C
  C60      1.0000 0.63249  0.77033  0.36401  Biso   1.000  C
  C61      1.0000 0.60370  0.33817  0.71950  Biso   1.000  C
  C62      1.0000 0.67281  0.27379  0.77863  Biso   1.000  C
  C63      1.0000 0.63420  0.24843  0.88264  Biso   1.000  C
  C64      1.0000 0.77460  0.24987  0.74076  Biso   1.000  C
  C65      1.0000 0.60727  0.33877  0.45439  Biso   1.000  C
  C66      1.0000 0.77759  0.62523  0.36401  Biso   1.000  C
  C67      1.0000 0.11370  0.84817  0.95591  Biso   1.000  C
  C68      1.0000 0.17807  0.77905  0.89678  Biso   1.000  C
  C69      1.0000 0.20344  0.81767  0.79277  Biso   1.000  C
  C70      1.0000 0.20200  0.67726  0.93465  Biso   1.000  C
  C71      1.0000 0.11309  0.84459  0.22102  Biso   1.000  C
  C72      1.0000 0.82663  0.67428  0.31140  Biso   1.000  C
  C73      1.0000 0.11400  0.10673  0.95601  Biso   1.000  C
  C74      1.0000 0.85077  0.84350  0.22013  Biso   1.000  C
  C75      1.0000 0.78610  0.77883  0.28876  Biso   1.000  C
  C76      1.0000 0.34513  0.33787  0.71940  Biso   1.000  C
  C77      1.0000 0.60836  0.60110  0.45528  Biso   1.000  C
  C78      1.0000 0.67303  0.66577  0.38665  Biso   1.000  C
  O27      1.0000 0.93275  0.09022  0.91221  Biso   1.000  O
  O28      1.0000 0.80381  0.09101  0.03838  Biso   1.000  O
  O29      1.0000 0.93254  0.09041  0.20480  Biso   1.000  O
  O30      1.0000 0.80242  0.09060  0.20490  Biso   1.000  O
  O31      1.0000 0.80271  0.92478  0.20649  Biso   1.000  O
  O32      1.0000 0.36164  0.51911  0.76320  Biso   1.000  O
  O33      1.0000 0.36086  0.64806  0.63703  Biso   1.000  O
  O34      1.0000 0.36146  0.51933  0.47060  Biso   1.000  O
  O35      1.0000 0.36126  0.64945  0.47051  Biso   1.000  O
  O36      1.0000 0.52708  0.64915  0.46892  Biso   1.000  O
  O37      1.0000 0.52637  0.35438  0.76320  Biso   1.000  O
  O38      1.0000 0.65532  0.35360  0.63703  Biso   1.000  O
  O39      1.0000 0.52659  0.35420  0.47060  Biso   1.000  O
  O40      1.0000 0.65671  0.35400  0.47051  Biso   1.000  O
  O41      1.0000 0.65641  0.51982  0.46892  Biso   1.000  O
  O42      1.0000 0.09749  0.92549  0.91221  Biso   1.000  O
  O43      1.0000 0.09827  0.79655  0.03838  Biso   1.000  O
  O44      1.0000 0.09767  0.92528  0.20480  Biso   1.000  O
  O45      1.0000 0.09787  0.79515  0.20490  Biso   1.000  O
  O46      1.0000 0.93205  0.79545  0.20649  Biso   1.000  O
  O47      1.0000 0.98110  0.97383  0.09168  Biso   1.000  O
  O48      1.0000 0.09739  0.09012  0.91072  Biso   1.000  O
  O49      1.0000 0.09728  0.09002  0.04016  Biso   1.000  O
  O50      1.0000 0.47803  0.47077  0.58373  Biso   1.000  O
  O51      1.0000 0.36174  0.35448  0.76468  Biso   1.000  O
