data_image0
_cell_length_a       18.283
_cell_length_b       18.283
_cell_length_c       18.283
_cell_angle_alpha    60
_cell_angle_beta     60
_cell_angle_gamma    60

_symmetry_space_group_name_H-M    "P 1"
_symmetry_int_tables_number       1

loop_
  _symmetry_equiv_pos_as_xyz
  'x, y, z'

loop_
  _atom_site_label
  _atom_site_occupancy
  _atom_site_fract_x
  _atom_site_fract_y
  _atom_site_fract_z
  _atom_site_thermal_displace_type
  _atom_site_B_iso_or_equiv
  _atom_site_type_symbol
  C1       1.0000 0.20657  0.38031  0.20656  Biso   1.000  C
  C2       1.0000 0.38032  0.20656  0.20656  Biso   1.000  C
  C3       1.0000 0.20657  0.20656  0.20656  Biso   1.000  C
  C4       1.0000 0.20657  0.20656  0.38031  Biso   1.000  C
  C5       1.0000 0.61968  0.79344  0.79344  Biso   1.000  C
  C6       1.0000 0.79343  0.61969  0.79344  Biso   1.000  C
  C7       1.0000 0.79343  0.79344  0.79344  Biso   1.000  C
  C8       1.0000 0.79343  0.79344  0.61969  Biso   1.000  C
  C9       1.0000 0.04500  0.56540  0.04500  Biso   1.000  C
  C10      1.0000 0.56540  0.04500  0.34460  Biso   1.000  C
  C11      1.0000 0.04500  0.34460  0.04500  Biso   1.000  C
  C12      1.0000 0.34460  0.04500  0.56540  Biso   1.000  C
  C13      1.0000 0.04500  0.04500  0.34460  Biso   1.000  C
  C14      1.0000 0.56540  0.34460  0.04500  Biso   1.000  C
  C15      1.0000 0.04500  0.04500  0.56540  Biso   1.000  C
  C16      1.0000 0.34460  0.56540  0.04500  Biso   1.000  C
  C17      1.0000 0.04500  0.34460  0.56540  Biso   1.000  C
  C18      1.0000 0.56540  0.04500  0.04500  Biso   1.000  C
  C19      1.0000 0.04500  0.56540  0.34460  Biso   1.000  C
  C20      1.0000 0.34460  0.04500  0.04500  Biso   1.000  C
  C21      1.0000 0.43460  0.95500  0.95500  Biso   1.000  C
  C22      1.0000 0.95500  0.43460  0.65540  Biso   1.000  C
  C23      1.0000 0.65540  0.95500  0.95500  Biso   1.000  C
  C24      1.0000 0.95500  0.65540  0.43460  Biso   1.000  C
  C25      1.0000 0.95500  0.95500  0.65540  Biso   1.000  C
  C26      1.0000 0.65540  0.43460  0.95500  Biso   1.000  C
  C27      1.0000 0.95500  0.95500  0.43460  Biso   1.000  C
  C28      1.0000 0.43460  0.65540  0.95500  Biso   1.000  C
  C29      1.0000 0.65540  0.95500  0.43460  Biso   1.000  C
  C30      1.0000 0.95500  0.43460  0.95500  Biso   1.000  C
  C31      1.0000 0.43460  0.95500  0.65540  Biso   1.000  C
  C32      1.0000 0.95500  0.65540  0.95500  Biso   1.000  C
  C33      1.0000 0.02670  0.53864  0.02670  Biso   1.000  C
  C34      1.0000 0.53864  0.02670  0.40796  Biso   1.000  C
  C35      1.0000 0.02670  0.40796  0.02670  Biso   1.000  C
  C36      1.0000 0.40796  0.02670  0.53864  Biso   1.000  C
  C37      1.0000 0.02670  0.02670  0.40796  Biso   1.000  C
  C38      1.0000 0.53864  0.40796  0.02670  Biso   1.000  C
  C39      1.0000 0.02670  0.02670  0.53864  Biso   1.000  C
  C40      1.0000 0.40796  0.53864  0.02670  Biso   1.000  C
  C41      1.0000 0.02670  0.40796  0.53864  Biso   1.000  C
  C42      1.0000 0.53864  0.02670  0.02670  Biso   1.000  C
  C43      1.0000 0.02670  0.53864  0.40796  Biso   1.000  C
  C44      1.0000 0.40796  0.02670  0.02670  Biso   1.000  C
  C45      1.0000 0.46136  0.97330  0.97330  Biso   1.000  C
  C46      1.0000 0.97330  0.46136  0.59204  Biso   1.000  C
  C47      1.0000 0.59204  0.97330  0.97330  Biso   1.000  C
  C48      1.0000 0.97330  0.59204  0.46136  Biso   1.000  C
  C49      1.0000 0.97330  0.97330  0.59204  Biso   1.000  C
  C50      1.0000 0.59204  0.46136  0.97330  Biso   1.000  C
  C51      1.0000 0.97330  0.97330  0.46136  Biso   1.000  C
  C52      1.0000 0.46136  0.59204  0.97330  Biso   1.000  C
  C53      1.0000 0.59204  0.97330  0.46136  Biso   1.000  C
  C54      1.0000 0.97330  0.46136  0.97330  Biso   1.000  C
  C55      1.0000 0.46136  0.97330  0.59204  Biso   1.000  C
  C56      1.0000 0.97330  0.59204  0.97330  Biso   1.000  C
  C57      1.0000 0.11148  0.38852  0.11148  Biso   1.000  C
  C58      1.0000 0.05372  0.44628  0.05372  Biso   1.000  C
  C59      1.0000 0.38852  0.11148  0.38852  Biso   1.000  C
  C60      1.0000 0.44628  0.05372  0.44628  Biso   1.000  C
  C61      1.0000 0.11148  0.11148  0.38852  Biso   1.000  C
  C62      1.0000 0.05372  0.05372  0.44628  Biso   1.000  C
  C63      1.0000 0.38852  0.38852  0.11148  Biso   1.000  C
  C64      1.0000 0.44628  0.44628  0.05372  Biso   1.000  C
  C65      1.0000 0.11148  0.38852  0.38852  Biso   1.000  C
  C66      1.0000 0.05372  0.44628  0.44628  Biso   1.000  C
  C67      1.0000 0.38852  0.11148  0.11148  Biso   1.000  C
  C68      1.0000 0.44628  0.05372  0.05372  Biso   1.000  C
  C69      1.0000 0.61148  0.88852  0.88852  Biso   1.000  C
  C70      1.0000 0.55372  0.94628  0.94628  Biso   1.000  C
  C71      1.0000 0.88852  0.61148  0.61148  Biso   1.000  C
  C72      1.0000 0.94628  0.55372  0.55372  Biso   1.000  C
  C73      1.0000 0.88852  0.88852  0.61148  Biso   1.000  C
  C74      1.0000 0.94628  0.94628  0.55372  Biso   1.000  C
  C75      1.0000 0.61148  0.61148  0.88852  Biso   1.000  C
  C76      1.0000 0.55372  0.55372  0.94628  Biso   1.000  C
  C77      1.0000 0.61148  0.88852  0.61148  Biso   1.000  C
  C78      1.0000 0.55372  0.94628  0.55372  Biso   1.000  C
  C79      1.0000 0.88852  0.61148  0.88852  Biso   1.000  C
  C80      1.0000 0.94628  0.55372  0.94628  Biso   1.000  C
  C81      1.0000 0.25000  0.25000  0.25000  Biso   1.000  C
  C82      1.0000 0.75000  0.75000  0.75000  Biso   1.000  C
  C83      1.0000 0.13373  0.42751  0.13373  Biso   1.000  C
  C84      1.0000 0.42751  0.13373  0.30503  Biso   1.000  C
  C85      1.0000 0.13373  0.30503  0.13373  Biso   1.000  C
  C86      1.0000 0.30503  0.13373  0.42751  Biso   1.000  C
  C87      1.0000 0.13373  0.13373  0.30503  Biso   1.000  C
  C88      1.0000 0.42751  0.30503  0.13373  Biso   1.000  C
  C89      1.0000 0.13373  0.13373  0.42751  Biso   1.000  C
  C90      1.0000 0.30503  0.42751  0.13373  Biso   1.000  C
  C91      1.0000 0.13373  0.30503  0.42751  Biso   1.000  C
  C92      1.0000 0.42751  0.13373  0.13373  Biso   1.000  C
  C93      1.0000 0.13373  0.42751  0.30503  Biso   1.000  C
  C94      1.0000 0.30503  0.13373  0.13373  Biso   1.000  C
  C95      1.0000 0.57249  0.86627  0.86627  Biso   1.000  C
  C96      1.0000 0.86627  0.57249  0.69497  Biso   1.000  C
  C97      1.0000 0.69497  0.86627  0.86627  Biso   1.000  C
  C98      1.0000 0.86627  0.69497  0.57249  Biso   1.000  C
  C99      1.0000 0.86627  0.86627  0.69497  Biso   1.000  C
  C100     1.0000 0.69497  0.57249  0.86627  Biso   1.000  C
  C101     1.0000 0.86627  0.86627  0.57249  Biso   1.000  C
  C102     1.0000 0.57249  0.69497  0.86627  Biso   1.000  C
  C103     1.0000 0.69497  0.86627  0.57249  Biso   1.000  C
  C104     1.0000 0.86627  0.57249  0.86627  Biso   1.000  C
  C105     1.0000 0.57249  0.86627  0.69497  Biso   1.000  C
  C106     1.0000 0.86627  0.69497  0.86627  Biso   1.000  C
  O1       1.0000 0.00000  0.00000  0.00000  Biso   1.000  O
  O2       1.0000 0.00000  0.00000  0.17389  Biso   1.000  O
  O3       1.0000 0.82611  0.00000  0.17389  Biso   1.000  O
  O4       1.0000 1.00000  0.82611  0.17389  Biso   1.000  O
  O5       1.0000 0.41282  0.41284  0.76063  Biso   1.000  O
  O6       1.0000 0.41282  0.41284  0.58674  Biso   1.000  O
  O7       1.0000 0.41282  0.58674  0.58674  Biso   1.000  O
  O8       1.0000 0.58672  0.41284  0.58674  Biso   1.000  O
  O9       1.0000 0.16173  0.16174  0.81583  Biso   1.000  O
  O10      1.0000 0.16173  0.16174  0.03417  Biso   1.000  O
  O11      1.0000 0.64192  0.86027  0.33563  Biso   1.000  O
  O12      1.0000 0.86026  0.64193  0.33563  Biso   1.000  O
  O13      1.0000 0.16173  0.64193  0.03417  Biso   1.000  O
  O14      1.0000 0.16173  0.86027  0.81583  Biso   1.000  O
  O15      1.0000 0.64192  0.16174  0.33563  Biso   1.000  O
  O16      1.0000 0.86026  0.16174  0.33563  Biso   1.000  O
  O17      1.0000 0.16173  0.86027  0.33563  Biso   1.000  O
  O18      1.0000 0.16173  0.64193  0.33563  Biso   1.000  O
  O19      1.0000 0.64192  0.16174  0.03417  Biso   1.000  O
  O20      1.0000 0.86026  0.16174  0.81583  Biso   1.000  O
  O21      1.0000 0.25109  0.25110  0.94480  Biso   1.000  O
  O22      1.0000 0.25109  0.25110  0.72647  Biso   1.000  O
  O23      1.0000 0.55256  0.77091  0.42500  Biso   1.000  O
  O24      1.0000 0.77090  0.55257  0.42500  Biso   1.000  O
  O25      1.0000 0.77090  0.25110  0.72647  Biso   1.000  O
  O26      1.0000 0.55256  0.25110  0.94480  Biso   1.000  O
  O27      1.0000 0.25109  0.77091  0.42500  Biso   1.000  O
  O28      1.0000 0.25109  0.55257  0.42500  Biso   1.000  O
  O29      1.0000 0.55256  0.25110  0.42500  Biso   1.000  O
  O30      1.0000 0.77090  0.25110  0.42500  Biso   1.000  O
  O31      1.0000 0.25109  0.77091  0.72647  Biso   1.000  O
  O32      1.0000 0.25109  0.55257  0.94480  Biso   1.000  O
  O33      1.0000 0.17973  0.17974  0.84243  Biso   1.000  O
  O34      1.0000 0.17973  0.17974  0.97156  Biso   1.000  O
  O35      1.0000 0.66852  0.79767  0.35364  Biso   1.000  O
  O36      1.0000 0.79766  0.66853  0.35364  Biso   1.000  O
  O37      1.0000 0.17973  0.66853  0.97156  Biso   1.000  O
  O38      1.0000 0.17973  0.79767  0.84243  Biso   1.000  O
  O39      1.0000 0.66852  0.17974  0.35364  Biso   1.000  O
  O40      1.0000 0.79766  0.17974  0.35364  Biso   1.000  O
  O41      1.0000 0.17973  0.79767  0.35364  Biso   1.000  O
  O42      1.0000 0.17973  0.66853  0.35364  Biso   1.000  O
  O43      1.0000 0.66852  0.17974  0.97156  Biso   1.000  O
  O44      1.0000 0.79766  0.17974  0.84243  Biso   1.000  O
  O45      1.0000 0.23309  0.23310  0.91821  Biso   1.000  O
  O46      1.0000 0.23309  0.23310  0.78907  Biso   1.000  O
  O47      1.0000 0.61516  0.74431  0.40699  Biso   1.000  O
  O48      1.0000 0.74430  0.61517  0.40699  Biso   1.000  O
  O49      1.0000 0.74430  0.23310  0.78907  Biso   1.000  O
  O50      1.0000 0.61516  0.23310  0.91821  Biso   1.000  O
  O51      1.0000 0.23309  0.74431  0.40699  Biso   1.000  O
  O52      1.0000 0.23309  0.61517  0.40699  Biso   1.000  O
  O53      1.0000 0.61516  0.23310  0.40699  Biso   1.000  O
  O54      1.0000 0.74430  0.23310  0.40699  Biso   1.000  O
  O55      1.0000 0.23309  0.74431  0.78907  Biso   1.000  O
  O56      1.0000 0.23309  0.61517  0.91821  Biso   1.000  O
  O57      1.0000 0.09499  0.09500  0.99195  Biso   1.000  O
  O58      1.0000 0.15268  0.15269  0.93426  Biso   1.000  O
  O59      1.0000 0.81805  0.81806  0.26889  Biso   1.000  O
  O60      1.0000 0.76035  0.76036  0.32659  Biso   1.000  O
  O61      1.0000 0.09499  0.81806  0.99195  Biso   1.000  O
  O62      1.0000 0.15268  0.76036  0.93426  Biso   1.000  O
  O63      1.0000 0.81805  0.09500  0.26889  Biso   1.000  O
  O64      1.0000 0.76035  0.15269  0.32659  Biso   1.000  O
  O65      1.0000 0.09499  0.81806  0.26889  Biso   1.000  O
  O66      1.0000 0.15268  0.76036  0.32659  Biso   1.000  O
  O67      1.0000 0.81805  0.09500  0.99195  Biso   1.000  O
  O68      1.0000 0.76035  0.15269  0.93426  Biso   1.000  O
  O69      1.0000 0.31783  0.31784  0.76868  Biso   1.000  O
  O70      1.0000 0.26014  0.26015  0.82637  Biso   1.000  O
  O71      1.0000 0.59477  0.59478  0.49174  Biso   1.000  O
  O72      1.0000 0.65247  0.65248  0.43404  Biso   1.000  O
  O73      1.0000 0.59477  0.31784  0.76868  Biso   1.000  O
  O74      1.0000 0.65247  0.26015  0.82637  Biso   1.000  O
  O75      1.0000 0.31783  0.59478  0.49174  Biso   1.000  O
  O76      1.0000 0.26014  0.65248  0.43404  Biso   1.000  O
  O77      1.0000 0.59477  0.31784  0.49174  Biso   1.000  O
  O78      1.0000 0.65247  0.26015  0.43404  Biso   1.000  O
  O79      1.0000 0.31783  0.59478  0.76868  Biso   1.000  O
  O80      1.0000 0.26014  0.65248  0.82637  Biso   1.000  O
  O81      1.0000 0.95652  0.95653  0.13042  Biso   1.000  O
  O82      1.0000 0.45630  0.45631  0.63021  Biso   1.000  O
  O83      1.0000 0.07256  0.07257  0.95349  Biso   1.000  O
  O84      1.0000 0.07256  0.07257  0.07528  Biso   1.000  O
  O85      1.0000 0.77959  0.90138  0.24646  Biso   1.000  O
  O86      1.0000 0.90137  0.77960  0.24646  Biso   1.000  O
  O87      1.0000 0.07256  0.77960  0.07528  Biso   1.000  O
  O88      1.0000 0.07256  0.90138  0.95349  Biso   1.000  O
  O89      1.0000 0.77959  0.07257  0.24646  Biso   1.000  O
  O90      1.0000 0.90137  0.07257  0.24646  Biso   1.000  O
  O91      1.0000 0.07256  0.90138  0.24646  Biso   1.000  O
  O92      1.0000 0.07256  0.77960  0.24646  Biso   1.000  O
  O93      1.0000 0.77959  0.07257  0.07528  Biso   1.000  O
  O94      1.0000 0.90137  0.07257  0.95349  Biso   1.000  O
  O95      1.0000 0.34026  0.34027  0.80714  Biso   1.000  O
  O96      1.0000 0.34026  0.34027  0.68535  Biso   1.000  O
  O97      1.0000 0.51145  0.63325  0.51417  Biso   1.000  O
  O98      1.0000 0.63324  0.51146  0.51417  Biso   1.000  O
  O99      1.0000 0.63324  0.34027  0.68535  Biso   1.000  O
  O100     1.0000 0.51145  0.34027  0.80714  Biso   1.000  O
  O101     1.0000 0.34026  0.63325  0.51417  Biso   1.000  O
  O102     1.0000 0.34026  0.51146  0.51417  Biso   1.000  O
  O103     1.0000 0.51145  0.34027  0.51417  Biso   1.000  O
  O104     1.0000 0.63324  0.34027  0.51417  Biso   1.000  O
  O105     1.0000 0.34026  0.63325  0.68535  Biso   1.000  O
