data_image0
_cell_length_a       18.283
_cell_length_b       18.283
_cell_length_c       18.283
_cell_angle_alpha    60
_cell_angle_beta     60
_cell_angle_gamma    60

_symmetry_space_group_name_H-M    "P 1"
_symmetry_int_tables_number       1

loop_
  _symmetry_equiv_pos_as_xyz
  'x, y, z'

loop_
  _atom_site_label
  _atom_site_occupancy
  _atom_site_fract_x
  _atom_site_fract_y
  _atom_site_fract_z
  _atom_site_thermal_displace_type
  _atom_site_B_iso_or_equiv
  _atom_site_type_symbol
  Zn1      1.0000 0.20657  0.38031  0.20656  Biso   1.000  Zn
  Zn2      1.0000 0.38032  0.20656  0.20656  Biso   1.000  Zn
  Zn3      1.0000 0.20657  0.20656  0.20656  Biso   1.000  Zn
  Zn4      1.0000 0.20657  0.20656  0.38031  Biso   1.000  Zn
  Zn5      1.0000 0.61968  0.79344  0.79344  Biso   1.000  Zn
  Zn6      1.0000 0.79343  0.61969  0.79344  Biso   1.000  Zn
  Zn7      1.0000 0.79343  0.79344  0.79344  Biso   1.000  Zn
  Zn8      1.0000 0.79343  0.79344  0.61969  Biso   1.000  Zn
  H1       1.0000 0.04500  0.56540  0.04500  Biso   1.000  H
  H2       1.0000 0.56540  0.04500  0.34460  Biso   1.000  H
  H3       1.0000 0.04500  0.34460  0.04500  Biso   1.000  H
  H4       1.0000 0.34460  0.04500  0.56540  Biso   1.000  H
  H5       1.0000 0.04500  0.04500  0.34460  Biso   1.000  H
  H6       1.0000 0.56540  0.34460  0.04500  Biso   1.000  H
  H7       1.0000 0.04500  0.04500  0.56540  Biso   1.000  H
  H8       1.0000 0.34460  0.56540  0.04500  Biso   1.000  H
  H9       1.0000 0.04500  0.34460  0.56540  Biso   1.000  H
  H10      1.0000 0.56540  0.04500  0.04500  Biso   1.000  H
  H11      1.0000 0.04500  0.56540  0.34460  Biso   1.000  H
  H12      1.0000 0.34460  0.04500  0.04500  Biso   1.000  H
  H13      1.0000 0.43460  0.95500  0.95500  Biso   1.000  H
  H14      1.0000 0.95500  0.43460  0.65540  Biso   1.000  H
  H15      1.0000 0.65540  0.95500  0.95500  Biso   1.000  H
  H16      1.0000 0.95500  0.65540  0.43460  Biso   1.000  H
  H17      1.0000 0.95500  0.95500  0.65540  Biso   1.000  H
  H18      1.0000 0.65540  0.43460  0.95500  Biso   1.000  H
  H19      1.0000 0.95500  0.95500  0.43460  Biso   1.000  H
  H20      1.0000 0.43460  0.65540  0.95500  Biso   1.000  H
  H21      1.0000 0.65540  0.95500  0.43460  Biso   1.000  H
  H22      1.0000 0.95500  0.43460  0.95500  Biso   1.000  H
  H23      1.0000 0.43460  0.95500  0.65540  Biso   1.000  H
  H24      1.0000 0.95500  0.65540  0.95500  Biso   1.000  H
  C1       1.0000 0.02670  0.53864  0.02670  Biso   1.000  C
  C2       1.0000 0.53864  0.02670  0.40796  Biso   1.000  C
  C3       1.0000 0.02670  0.40796  0.02670  Biso   1.000  C
  C4       1.0000 0.40796  0.02670  0.53864  Biso   1.000  C
  C5       1.0000 0.02670  0.02670  0.40796  Biso   1.000  C
  C6       1.0000 0.53864  0.40796  0.02670  Biso   1.000  C
  C7       1.0000 0.02670  0.02670  0.53864  Biso   1.000  C
  C8       1.0000 0.40796  0.53864  0.02670  Biso   1.000  C
  C9       1.0000 0.02670  0.40796  0.53864  Biso   1.000  C
  C10      1.0000 0.53864  0.02670  0.02670  Biso   1.000  C
  C11      1.0000 0.02670  0.53864  0.40796  Biso   1.000  C
  C12      1.0000 0.40796  0.02670  0.02670  Biso   1.000  C
  C13      1.0000 0.46136  0.97330  0.97330  Biso   1.000  C
  C14      1.0000 0.97330  0.46136  0.59204  Biso   1.000  C
  C15      1.0000 0.59204  0.97330  0.97330  Biso   1.000  C
  C16      1.0000 0.97330  0.59204  0.46136  Biso   1.000  C
  C17      1.0000 0.97330  0.97330  0.59204  Biso   1.000  C
  C18      1.0000 0.59204  0.46136  0.97330  Biso   1.000  C
  C19      1.0000 0.97330  0.97330  0.46136  Biso   1.000  C
  C20      1.0000 0.46136  0.59204  0.97330  Biso   1.000  C
  C21      1.0000 0.59204  0.97330  0.46136  Biso   1.000  C
  C22      1.0000 0.97330  0.46136  0.97330  Biso   1.000  C
  C23      1.0000 0.46136  0.97330  0.59204  Biso   1.000  C
  C24      1.0000 0.97330  0.59204  0.97330  Biso   1.000  C
  C25      1.0000 0.11148  0.38852  0.11148  Biso   1.000  C
  C26      1.0000 0.05372  0.44628  0.05372  Biso   1.000  C
  C27      1.0000 0.38852  0.11148  0.38852  Biso   1.000  C
  C28      1.0000 0.44628  0.05372  0.44628  Biso   1.000  C
  C29      1.0000 0.11148  0.11148  0.38852  Biso   1.000  C
  C30      1.0000 0.05372  0.05372  0.44628  Biso   1.000  C
  C31      1.0000 0.38852  0.38852  0.11148  Biso   1.000  C
  C32      1.0000 0.44628  0.44628  0.05372  Biso   1.000  C
  C33      1.0000 0.11148  0.38852  0.38852  Biso   1.000  C
  C34      1.0000 0.05372  0.44628  0.44628  Biso   1.000  C
  C35      1.0000 0.38852  0.11148  0.11148  Biso   1.000  C
  C36      1.0000 0.44628  0.05372  0.05372  Biso   1.000  C
  C37      1.0000 0.61148  0.88852  0.88852  Biso   1.000  C
  C38      1.0000 0.55372  0.94628  0.94628  Biso   1.000  C
  C39      1.0000 0.88852  0.61148  0.61148  Biso   1.000  C
  C40      1.0000 0.94628  0.55372  0.55372  Biso   1.000  C
  C41      1.0000 0.88852  0.88852  0.61148  Biso   1.000  C
  C42      1.0000 0.94628  0.94628  0.55372  Biso   1.000  C
  C43      1.0000 0.61148  0.61148  0.88852  Biso   1.000  C
  C44      1.0000 0.55372  0.55372  0.94628  Biso   1.000  C
  C45      1.0000 0.61148  0.88852  0.61148  Biso   1.000  C
  C46      1.0000 0.55372  0.94628  0.55372  Biso   1.000  C
  C47      1.0000 0.88852  0.61148  0.88852  Biso   1.000  C
  C48      1.0000 0.94628  0.55372  0.94628  Biso   1.000  C
  O1       1.0000 0.25000  0.25000  0.25000  Biso   1.000  O
  O2       1.0000 0.75000  0.75000  0.75000  Biso   1.000  O
  O3       1.0000 0.13373  0.42751  0.13373  Biso   1.000  O
  O4       1.0000 0.42751  0.13373  0.30503  Biso   1.000  O
  O5       1.0000 0.13373  0.30503  0.13373  Biso   1.000  O
  O6       1.0000 0.30503  0.13373  0.42751  Biso   1.000  O
  O7       1.0000 0.13373  0.13373  0.30503  Biso   1.000  O
  O8       1.0000 0.42751  0.30503  0.13373  Biso   1.000  O
  O9       1.0000 0.13373  0.13373  0.42751  Biso   1.000  O
  O10      1.0000 0.30503  0.42751  0.13373  Biso   1.000  O
  O11      1.0000 0.13373  0.30503  0.42751  Biso   1.000  O
  O12      1.0000 0.42751  0.13373  0.13373  Biso   1.000  O
  O13      1.0000 0.13373  0.42751  0.30503  Biso   1.000  O
  O14      1.0000 0.30503  0.13373  0.13373  Biso   1.000  O
  O15      1.0000 0.57249  0.86627  0.86627  Biso   1.000  O
  O16      1.0000 0.86627  0.57249  0.69497  Biso   1.000  O
  O17      1.0000 0.69497  0.86627  0.86627  Biso   1.000  O
  O18      1.0000 0.86627  0.69497  0.57249  Biso   1.000  O
  O19      1.0000 0.86627  0.86627  0.69497  Biso   1.000  O
  O20      1.0000 0.69497  0.57249  0.86627  Biso   1.000  O
  O21      1.0000 0.86627  0.86627  0.57249  Biso   1.000  O
  O22      1.0000 0.57249  0.69497  0.86627  Biso   1.000  O
  O23      1.0000 0.69497  0.86627  0.57249  Biso   1.000  O
  O24      1.0000 0.86627  0.57249  0.86627  Biso   1.000  O
  O25      1.0000 0.57249  0.86627  0.69497  Biso   1.000  O
  O26      1.0000 0.86627  0.69497  0.86627  Biso   1.000  O
  Zn9      1.0000 0.00550  0.83954  0.13398  Biso   1.000  Zn
  Zn10     1.0000 0.00550  0.01412  0.13398  Biso   1.000  Zn
  Zn11     1.0000 0.83093  0.01412  0.13398  Biso   1.000  Zn
  Zn12     1.0000 0.00550  0.01412  0.95940  Biso   1.000  Zn
  Zn13     1.0000 0.41972  0.42632  0.54619  Biso   1.000  Zn
  Zn14     1.0000 0.41972  0.60090  0.54619  Biso   1.000  Zn
  Zn15     1.0000 0.59430  0.42632  0.54619  Biso   1.000  Zn
  Zn16     1.0000 0.41972  0.42632  0.72076  Biso   1.000  Zn
  H25      1.0000 0.87447  0.65445  0.29204  Biso   1.000  H
  H26      1.0000 0.16356  0.17217  0.00294  Biso   1.000  H
  H27      1.0000 0.64584  0.88308  0.29204  Biso   1.000  H
  H28      1.0000 0.16356  0.17217  0.77431  Biso   1.000  H
  H29      1.0000 0.64584  0.17217  0.00294  Biso   1.000  H
  H30      1.0000 0.16356  0.88308  0.29204  Biso   1.000  H
  H31      1.0000 0.87447  0.17217  0.77431  Biso   1.000  H
  H32      1.0000 0.16356  0.65445  0.29204  Biso   1.000  H
  H33      1.0000 0.16356  0.88308  0.77431  Biso   1.000  H
  H34      1.0000 0.87447  0.17217  0.29204  Biso   1.000  H
  H35      1.0000 0.16356  0.65445  0.00294  Biso   1.000  H
  H36      1.0000 0.64584  0.17217  0.29204  Biso   1.000  H
  H37      1.0000 0.55076  0.26827  0.38813  Biso   1.000  H
  H38      1.0000 0.26167  0.78599  0.67722  Biso   1.000  H
  H39      1.0000 0.77939  0.26827  0.38813  Biso   1.000  H
  H40      1.0000 0.26167  0.55736  0.90585  Biso   1.000  H
  H41      1.0000 0.77939  0.26827  0.67722  Biso   1.000  H
  H42      1.0000 0.26167  0.78599  0.38813  Biso   1.000  H
  H43      1.0000 0.55076  0.26827  0.90585  Biso   1.000  H
  H44      1.0000 0.26167  0.55736  0.38813  Biso   1.000  H
  H45      1.0000 0.26167  0.26827  0.90585  Biso   1.000  H
  H46      1.0000 0.55076  0.78599  0.38813  Biso   1.000  H
  H47      1.0000 0.26167  0.26827  0.67722  Biso   1.000  H
  H48      1.0000 0.77939  0.55736  0.38813  Biso   1.000  H
  C49      1.0000 0.80370  0.68098  0.31416  Biso   1.000  C
  C50      1.0000 0.18568  0.19430  0.93217  Biso   1.000  C
  C51      1.0000 0.67237  0.81231  0.31416  Biso   1.000  C
  C52      1.0000 0.18568  0.19430  0.80084  Biso   1.000  C
  C53      1.0000 0.67237  0.19430  0.93217  Biso   1.000  C
  C54      1.0000 0.18568  0.81231  0.31416  Biso   1.000  C
  C55      1.0000 0.80370  0.19430  0.80084  Biso   1.000  C
  C56      1.0000 0.18568  0.68098  0.31416  Biso   1.000  C
  C57      1.0000 0.18568  0.81231  0.80084  Biso   1.000  C
  C58      1.0000 0.80370  0.19430  0.31416  Biso   1.000  C
  C59      1.0000 0.18568  0.68098  0.93217  Biso   1.000  C
  C60      1.0000 0.67237  0.19430  0.31416  Biso   1.000  C
  C61      1.0000 0.62153  0.24614  0.36600  Biso   1.000  C
  C62      1.0000 0.23954  0.75946  0.74799  Biso   1.000  C
  C63      1.0000 0.75286  0.24614  0.36600  Biso   1.000  C
  C64      1.0000 0.23954  0.62813  0.87932  Biso   1.000  C
  C65      1.0000 0.75286  0.24614  0.74799  Biso   1.000  C
  C66      1.0000 0.23954  0.75946  0.36600  Biso   1.000  C
  C67      1.0000 0.62153  0.24614  0.87932  Biso   1.000  C
  C68      1.0000 0.23954  0.62813  0.36600  Biso   1.000  C
  C69      1.0000 0.23954  0.24614  0.87932  Biso   1.000  C
  C70      1.0000 0.62153  0.75946  0.36600  Biso   1.000  C
  C71      1.0000 0.23954  0.24614  0.74799  Biso   1.000  C
  C72      1.0000 0.75286  0.62813  0.36600  Biso   1.000  C
  C73      1.0000 0.82222  0.83083  0.22997  Biso   1.000  C
  C74      1.0000 0.76596  0.77457  0.28623  Biso   1.000  C
  C75      1.0000 0.10150  0.11011  0.95069  Biso   1.000  C
  C76      1.0000 0.15776  0.16637  0.89444  Biso   1.000  C
  C77      1.0000 0.82222  0.11011  0.95069  Biso   1.000  C
  C78      1.0000 0.76596  0.16637  0.89444  Biso   1.000  C
  C79      1.0000 0.10150  0.83083  0.22997  Biso   1.000  C
  C80      1.0000 0.15776  0.77457  0.28623  Biso   1.000  C
  C81      1.0000 0.10150  0.83083  0.95069  Biso   1.000  C
  C82      1.0000 0.15776  0.77457  0.89444  Biso   1.000  C
  C83      1.0000 0.82222  0.11011  0.22997  Biso   1.000  C
  C84      1.0000 0.76596  0.16637  0.28623  Biso   1.000  C
  C85      1.0000 0.60301  0.33033  0.45019  Biso   1.000  C
  C86      1.0000 0.65927  0.27407  0.39393  Biso   1.000  C
  C87      1.0000 0.32373  0.60961  0.72947  Biso   1.000  C
  C88      1.0000 0.26747  0.66587  0.78573  Biso   1.000  C
  C89      1.0000 0.60301  0.33033  0.72947  Biso   1.000  C
  C90      1.0000 0.65927  0.27407  0.78573  Biso   1.000  C
  C91      1.0000 0.32373  0.60961  0.45019  Biso   1.000  C
  C92      1.0000 0.26747  0.66587  0.39393  Biso   1.000  C
  C93      1.0000 0.32373  0.33033  0.72947  Biso   1.000  C
  C94      1.0000 0.26747  0.27407  0.78573  Biso   1.000  C
  C95      1.0000 0.60301  0.60961  0.45019  Biso   1.000  C
  C96      1.0000 0.65927  0.66587  0.39393  Biso   1.000  C
  O27      1.0000 0.96186  0.97047  0.09033  Biso   1.000  O
  O28      1.0000 0.46337  0.46997  0.58983  Biso   1.000  O
  O29      1.0000 0.90670  0.79199  0.20715  Biso   1.000  O
  O30      1.0000 0.07868  0.08729  0.03518  Biso   1.000  O
  O31      1.0000 0.78338  0.91532  0.20715  Biso   1.000  O
  O32      1.0000 0.07868  0.08729  0.91185  Biso   1.000  O
  O33      1.0000 0.78338  0.08729  0.03518  Biso   1.000  O
  O34      1.0000 0.07868  0.91532  0.20715  Biso   1.000  O
  O35      1.0000 0.90670  0.08729  0.91185  Biso   1.000  O
  O36      1.0000 0.07868  0.79199  0.20715  Biso   1.000  O
  O37      1.0000 0.07868  0.91532  0.91185  Biso   1.000  O
  O38      1.0000 0.90670  0.08729  0.20715  Biso   1.000  O
  O39      1.0000 0.07868  0.79199  0.03518  Biso   1.000  O
  O40      1.0000 0.78338  0.08729  0.20715  Biso   1.000  O
  O41      1.0000 0.51852  0.35315  0.47301  Biso   1.000  O
  O42      1.0000 0.34655  0.64845  0.64498  Biso   1.000  O
  O43      1.0000 0.64185  0.35315  0.47301  Biso   1.000  O
  O44      1.0000 0.34655  0.52512  0.76831  Biso   1.000  O
  O45      1.0000 0.64185  0.35315  0.64498  Biso   1.000  O
  O46      1.0000 0.34655  0.64845  0.47301  Biso   1.000  O
  O47      1.0000 0.51852  0.35315  0.76831  Biso   1.000  O
  O48      1.0000 0.34655  0.52512  0.47301  Biso   1.000  O
  O49      1.0000 0.34655  0.35315  0.76831  Biso   1.000  O
  O50      1.0000 0.51852  0.64845  0.47301  Biso   1.000  O
  O51      1.0000 0.34655  0.35315  0.64498  Biso   1.000  O
