data_image0
_cell_length_a       18.3127
_cell_length_b       18.3127
_cell_length_c       18.3127
_cell_angle_alpha    60
_cell_angle_beta     60
_cell_angle_gamma    60

_symmetry_space_group_name_H-M    "P 1"
_symmetry_int_tables_number       1

loop_
  _symmetry_equiv_pos_as_xyz
  'x, y, z'

loop_
  _atom_site_label
  _atom_site_occupancy
  _atom_site_fract_x
  _atom_site_fract_y
  _atom_site_fract_z
  _atom_site_thermal_displace_type
  _atom_site_B_iso_or_equiv
  _atom_site_type_symbol
  C1       1.0000 0.20666  0.38001  0.20666  Biso   1.000  C
  C2       1.0000 0.38001  0.20666  0.20666  Biso   1.000  C
  C3       1.0000 0.20667  0.20666  0.20666  Biso   1.000  C
  C4       1.0000 0.20667  0.20666  0.38001  Biso   1.000  C
  C5       1.0000 0.61999  0.79334  0.79334  Biso   1.000  C
  C6       1.0000 0.79334  0.61999  0.79333  Biso   1.000  C
  C7       1.0000 0.79334  0.79333  0.79334  Biso   1.000  C
  C8       1.0000 0.79334  0.79333  0.61999  Biso   1.000  C
  C9       1.0000 0.04520  0.56580  0.04520  Biso   1.000  C
  C10      1.0000 0.56580  0.04520  0.34380  Biso   1.000  C
  C11      1.0000 0.04520  0.34380  0.04520  Biso   1.000  C
  C12      1.0000 0.34380  0.04520  0.56580  Biso   1.000  C
  C13      1.0000 0.04520  0.04520  0.34380  Biso   1.000  C
  C14      1.0000 0.56580  0.34380  0.04520  Biso   1.000  C
  C15      1.0000 0.04520  0.04520  0.56580  Biso   1.000  C
  C16      1.0000 0.34380  0.56580  0.04520  Biso   1.000  C
  C17      1.0000 0.04520  0.34380  0.56580  Biso   1.000  C
  C18      1.0000 0.56580  0.04520  0.04520  Biso   1.000  C
  C19      1.0000 0.04520  0.56580  0.34380  Biso   1.000  C
  C20      1.0000 0.34380  0.04520  0.04520  Biso   1.000  C
  C21      1.0000 0.43420  0.95480  0.95480  Biso   1.000  C
  C22      1.0000 0.95480  0.43420  0.65620  Biso   1.000  C
  C23      1.0000 0.65620  0.95480  0.95480  Biso   1.000  C
  C24      1.0000 0.95480  0.65620  0.43420  Biso   1.000  C
  C25      1.0000 0.95480  0.95480  0.65620  Biso   1.000  C
  C26      1.0000 0.65620  0.43420  0.95480  Biso   1.000  C
  C27      1.0000 0.95480  0.95480  0.43420  Biso   1.000  C
  C28      1.0000 0.43420  0.65620  0.95480  Biso   1.000  C
  C29      1.0000 0.65620  0.95480  0.43420  Biso   1.000  C
  C30      1.0000 0.95480  0.43420  0.95480  Biso   1.000  C
  C31      1.0000 0.43420  0.95480  0.65620  Biso   1.000  C
  C32      1.0000 0.95480  0.65620  0.95480  Biso   1.000  C
  C33      1.0000 0.02688  0.53930  0.02688  Biso   1.000  C
  C34      1.0000 0.53930  0.02688  0.40694  Biso   1.000  C
  C35      1.0000 0.02688  0.40694  0.02688  Biso   1.000  C
  C36      1.0000 0.40694  0.02688  0.53930  Biso   1.000  C
  C37      1.0000 0.02688  0.02688  0.40694  Biso   1.000  C
  C38      1.0000 0.53930  0.40694  0.02688  Biso   1.000  C
  C39      1.0000 0.02688  0.02688  0.53930  Biso   1.000  C
  C40      1.0000 0.40694  0.53930  0.02688  Biso   1.000  C
  C41      1.0000 0.02688  0.40694  0.53930  Biso   1.000  C
  C42      1.0000 0.53930  0.02688  0.02688  Biso   1.000  C
  C43      1.0000 0.02688  0.53930  0.40694  Biso   1.000  C
  C44      1.0000 0.40694  0.02688  0.02688  Biso   1.000  C
  C45      1.0000 0.46070  0.97312  0.97312  Biso   1.000  C
  C46      1.0000 0.97312  0.46070  0.59306  Biso   1.000  C
  C47      1.0000 0.59306  0.97312  0.97312  Biso   1.000  C
  C48      1.0000 0.97312  0.59306  0.46070  Biso   1.000  C
  C49      1.0000 0.97312  0.97312  0.59306  Biso   1.000  C
  C50      1.0000 0.59306  0.46070  0.97312  Biso   1.000  C
  C51      1.0000 0.97312  0.97312  0.46070  Biso   1.000  C
  C52      1.0000 0.46070  0.59306  0.97312  Biso   1.000  C
  C53      1.0000 0.59306  0.97312  0.46070  Biso   1.000  C
  C54      1.0000 0.97312  0.46070  0.97312  Biso   1.000  C
  C55      1.0000 0.46070  0.97312  0.59306  Biso   1.000  C
  C56      1.0000 0.97312  0.59306  0.97312  Biso   1.000  C
  C57      1.0000 0.11142  0.38858  0.11142  Biso   1.000  C
  C58      1.0000 0.05381  0.44619  0.05381  Biso   1.000  C
  C59      1.0000 0.38858  0.11142  0.38858  Biso   1.000  C
  C60      1.0000 0.44619  0.05381  0.44619  Biso   1.000  C
  C61      1.0000 0.11142  0.11142  0.38858  Biso   1.000  C
  C62      1.0000 0.05381  0.05381  0.44619  Biso   1.000  C
  C63      1.0000 0.38858  0.38858  0.11142  Biso   1.000  C
  C64      1.0000 0.44619  0.44619  0.05381  Biso   1.000  C
  C65      1.0000 0.11142  0.38858  0.38858  Biso   1.000  C
  C66      1.0000 0.05381  0.44619  0.44619  Biso   1.000  C
  C67      1.0000 0.38858  0.11142  0.11142  Biso   1.000  C
  C68      1.0000 0.44619  0.05381  0.05381  Biso   1.000  C
  C69      1.0000 0.61142  0.88858  0.88858  Biso   1.000  C
  C70      1.0000 0.55381  0.94619  0.94619  Biso   1.000  C
  C71      1.0000 0.88858  0.61142  0.61142  Biso   1.000  C
  C72      1.0000 0.94619  0.55381  0.55381  Biso   1.000  C
  C73      1.0000 0.88858  0.88858  0.61142  Biso   1.000  C
  C74      1.0000 0.94619  0.94619  0.55381  Biso   1.000  C
  C75      1.0000 0.61142  0.61142  0.88858  Biso   1.000  C
  C76      1.0000 0.55381  0.55381  0.94619  Biso   1.000  C
  C77      1.0000 0.61142  0.88858  0.61142  Biso   1.000  C
  C78      1.0000 0.55381  0.94619  0.55381  Biso   1.000  C
  C79      1.0000 0.88858  0.61142  0.88858  Biso   1.000  C
  C80      1.0000 0.94619  0.55381  0.94619  Biso   1.000  C
  C81      1.0000 0.25000  0.25000  0.25000  Biso   1.000  C
  C82      1.0000 0.75000  0.75000  0.75000  Biso   1.000  C
  C83      1.0000 0.13369  0.42773  0.13369  Biso   1.000  C
  C84      1.0000 0.42773  0.13369  0.30489  Biso   1.000  C
  C85      1.0000 0.13369  0.30489  0.13369  Biso   1.000  C
  C86      1.0000 0.30489  0.13369  0.42773  Biso   1.000  C
  C87      1.0000 0.13369  0.13369  0.30489  Biso   1.000  C
  C88      1.0000 0.42773  0.30489  0.13369  Biso   1.000  C
  C89      1.0000 0.13369  0.13369  0.42773  Biso   1.000  C
  C90      1.0000 0.30489  0.42773  0.13369  Biso   1.000  C
  C91      1.0000 0.13369  0.30489  0.42773  Biso   1.000  C
  C92      1.0000 0.42773  0.13369  0.13369  Biso   1.000  C
  C93      1.0000 0.13369  0.42773  0.30489  Biso   1.000  C
  C94      1.0000 0.30489  0.13369  0.13369  Biso   1.000  C
  C95      1.0000 0.57227  0.86631  0.86631  Biso   1.000  C
  C96      1.0000 0.86631  0.57227  0.69511  Biso   1.000  C
  C97      1.0000 0.69511  0.86631  0.86631  Biso   1.000  C
  C98      1.0000 0.86631  0.69511  0.57227  Biso   1.000  C
  C99      1.0000 0.86631  0.86631  0.69511  Biso   1.000  C
  C100     1.0000 0.69511  0.57227  0.86631  Biso   1.000  C
  C101     1.0000 0.86631  0.86631  0.57227  Biso   1.000  C
  C102     1.0000 0.57227  0.69511  0.86631  Biso   1.000  C
  C103     1.0000 0.69511  0.86631  0.57227  Biso   1.000  C
  C104     1.0000 0.86631  0.57227  0.86631  Biso   1.000  C
  C105     1.0000 0.57227  0.86631  0.69511  Biso   1.000  C
  C106     1.0000 0.86631  0.69511  0.86631  Biso   1.000  C
  O1       1.0000 0.85220  0.01847  0.13376  Biso   1.000  O
  O2       1.0000 0.43289  0.59916  0.54141  Biso   1.000  O
  O3       1.0000 0.60606  0.42598  0.54141  Biso   1.000  O
  O4       1.0000 0.02538  0.84529  0.13376  Biso   1.000  O
  O5       1.0000 0.02546  0.01855  0.96039  Biso   1.000  O
  O6       1.0000 0.02520  0.01829  0.13389  Biso   1.000  O
  O7       1.0000 0.43281  0.42590  0.71479  Biso   1.000  O
  O8       1.0000 0.43307  0.42616  0.54129  Biso   1.000  O
  O9       1.0000 0.88790  0.17476  0.76620  Biso   1.000  O
  O10      1.0000 0.65695  0.17322  0.99774  Biso   1.000  O
  O11      1.0000 0.65496  0.88240  0.28767  Biso   1.000  O
  O12      1.0000 0.27660  0.56346  0.90898  Biso   1.000  O
  O13      1.0000 0.27814  0.79441  0.67743  Biso   1.000  O
  O14      1.0000 0.56896  0.79640  0.38751  Biso   1.000  O
  O15      1.0000 0.57037  0.26969  0.90898  Biso   1.000  O
  O16      1.0000 0.80132  0.27123  0.67743  Biso   1.000  O
  O17      1.0000 0.80331  0.56205  0.38751  Biso   1.000  O
  O18      1.0000 0.18167  0.88099  0.76620  Biso   1.000  O
  O19      1.0000 0.18012  0.65004  0.99774  Biso   1.000  O
  O20      1.0000 0.88931  0.64805  0.28767  Biso   1.000  O
  O21      1.0000 0.85513  0.10640  0.95593  Biso   1.000  O
  O22      1.0000 0.78604  0.17075  0.89682  Biso   1.000  O
  O23      1.0000 0.82464  0.19611  0.79249  Biso   1.000  O
  O24      1.0000 0.68394  0.19467  0.93468  Biso   1.000  O
  O25      1.0000 0.85156  0.10579  0.22094  Biso   1.000  O
  O26      1.0000 0.68095  0.81944  0.31129  Biso   1.000  O
  O27      1.0000 0.34496  0.59623  0.71924  Biso   1.000  O
  O28      1.0000 0.28061  0.66532  0.77836  Biso   1.000  O
  O29      1.0000 0.25525  0.62672  0.88268  Biso   1.000  O
  O30      1.0000 0.25669  0.76742  0.74050  Biso   1.000  O
  O31      1.0000 0.34556  0.59980  0.45423  Biso   1.000  O
  O32      1.0000 0.63192  0.77041  0.36388  Biso   1.000  O
  O33      1.0000 0.60314  0.33805  0.71924  Biso   1.000  O
  O34      1.0000 0.67223  0.27370  0.77836  Biso   1.000  O
  O35      1.0000 0.63363  0.24834  0.88268  Biso   1.000  O
  O36      1.0000 0.77433  0.24978  0.74050  Biso   1.000  O
  O37      1.0000 0.60671  0.33866  0.45423  Biso   1.000  O
  O38      1.0000 0.77732  0.62501  0.36388  Biso   1.000  O
  O39      1.0000 0.11331  0.84822  0.95593  Biso   1.000  O
  O40      1.0000 0.17766  0.77913  0.89682  Biso   1.000  O
  O41      1.0000 0.20301  0.81773  0.79249  Biso   1.000  O
  O42      1.0000 0.20158  0.67703  0.93468  Biso   1.000  O
  O43      1.0000 0.11270  0.84465  0.22094  Biso   1.000  O
  O44      1.0000 0.82635  0.67404  0.31129  Biso   1.000  O
  O45      1.0000 0.11361  0.10670  0.95603  Biso   1.000  O
  O46      1.0000 0.85047  0.84356  0.22005  Biso   1.000  O
  O47      1.0000 0.78582  0.77891  0.28866  Biso   1.000  O
  O48      1.0000 0.34466  0.33775  0.71914  Biso   1.000  O
  O49      1.0000 0.60780  0.60089  0.45512  Biso   1.000  O
  O50      1.0000 0.67245  0.66554  0.38652  Biso   1.000  O
  O51      1.0000 0.93243  0.09019  0.91224  Biso   1.000  O
  O52      1.0000 0.80353  0.09098  0.03837  Biso   1.000  O
  O53      1.0000 0.93221  0.09037  0.20473  Biso   1.000  O
  O54      1.0000 0.80214  0.09057  0.20483  Biso   1.000  O
  O55      1.0000 0.80243  0.92481  0.20641  Biso   1.000  O
  O56      1.0000 0.36117  0.51893  0.76294  Biso   1.000  O
  O57      1.0000 0.36038  0.64783  0.63680  Biso   1.000  O
  O58      1.0000 0.36098  0.51914  0.47044  Biso   1.000  O
  O59      1.0000 0.36079  0.64922  0.47034  Biso   1.000  O
  O60      1.0000 0.52655  0.64893  0.46876  Biso   1.000  O
  O61      1.0000 0.52584  0.35426  0.76294  Biso   1.000  O
  O62      1.0000 0.65474  0.35347  0.63680  Biso   1.000  O
  O63      1.0000 0.52605  0.35408  0.47044  Biso   1.000  O
  O64      1.0000 0.65613  0.35388  0.47034  Biso   1.000  O
  O65      1.0000 0.65584  0.51964  0.46876  Biso   1.000  O
  O66      1.0000 0.09710  0.92552  0.91224  Biso   1.000  O
  O67      1.0000 0.09789  0.79662  0.03837  Biso   1.000  O
  O68      1.0000 0.09728  0.92530  0.20473  Biso   1.000  O
  O69      1.0000 0.09748  0.79523  0.20483  Biso   1.000  O
  O70      1.0000 0.93172  0.79552  0.20641  Biso   1.000  O
  O71      1.0000 0.98075  0.97384  0.09165  Biso   1.000  O
  O72      1.0000 0.09700  0.09009  0.91075  Biso   1.000  O
  O73      1.0000 0.09690  0.08999  0.04015  Biso   1.000  O
  O74      1.0000 0.47751  0.47061  0.58352  Biso   1.000  O
  O75      1.0000 0.36126  0.35436  0.76442  Biso   1.000  O
