data_image0
_cell_length_a       18.3127
_cell_length_b       18.3127
_cell_length_c       18.3127
_cell_angle_alpha    60
_cell_angle_beta     60
_cell_angle_gamma    60

_symmetry_space_group_name_H-M    "P 1"
_symmetry_int_tables_number       1

loop_
  _symmetry_equiv_pos_as_xyz
  'x, y, z'

loop_
  _atom_site_label
  _atom_site_occupancy
  _atom_site_fract_x
  _atom_site_fract_y
  _atom_site_fract_z
  _atom_site_thermal_displace_type
  _atom_site_B_iso_or_equiv
  _atom_site_type_symbol
  Zn1      1.0000 0.20666  0.38001  0.20666  Biso   1.000  Zn
  Zn2      1.0000 0.38001  0.20666  0.20666  Biso   1.000  Zn
  Zn3      1.0000 0.20667  0.20666  0.20666  Biso   1.000  Zn
  Zn4      1.0000 0.20667  0.20666  0.38001  Biso   1.000  Zn
  Zn5      1.0000 0.61999  0.79334  0.79334  Biso   1.000  Zn
  Zn6      1.0000 0.79334  0.61999  0.79333  Biso   1.000  Zn
  Zn7      1.0000 0.79334  0.79333  0.79334  Biso   1.000  Zn
  Zn8      1.0000 0.79334  0.79333  0.61999  Biso   1.000  Zn
  H1       1.0000 0.04520  0.56580  0.04520  Biso   1.000  H
  H2       1.0000 0.56580  0.04520  0.34380  Biso   1.000  H
  H3       1.0000 0.04520  0.34380  0.04520  Biso   1.000  H
  H4       1.0000 0.34380  0.04520  0.56580  Biso   1.000  H
  H5       1.0000 0.04520  0.04520  0.34380  Biso   1.000  H
  H6       1.0000 0.56580  0.34380  0.04520  Biso   1.000  H
  H7       1.0000 0.04520  0.04520  0.56580  Biso   1.000  H
  H8       1.0000 0.34380  0.56580  0.04520  Biso   1.000  H
  H9       1.0000 0.04520  0.34380  0.56580  Biso   1.000  H
  H10      1.0000 0.56580  0.04520  0.04520  Biso   1.000  H
  H11      1.0000 0.04520  0.56580  0.34380  Biso   1.000  H
  H12      1.0000 0.34380  0.04520  0.04520  Biso   1.000  H
  H13      1.0000 0.43420  0.95480  0.95480  Biso   1.000  H
  H14      1.0000 0.95480  0.43420  0.65620  Biso   1.000  H
  H15      1.0000 0.65620  0.95480  0.95480  Biso   1.000  H
  H16      1.0000 0.95480  0.65620  0.43420  Biso   1.000  H
  H17      1.0000 0.95480  0.95480  0.65620  Biso   1.000  H
  H18      1.0000 0.65620  0.43420  0.95480  Biso   1.000  H
  H19      1.0000 0.95480  0.95480  0.43420  Biso   1.000  H
  H20      1.0000 0.43420  0.65620  0.95480  Biso   1.000  H
  H21      1.0000 0.65620  0.95480  0.43420  Biso   1.000  H
  H22      1.0000 0.95480  0.43420  0.95480  Biso   1.000  H
  H23      1.0000 0.43420  0.95480  0.65620  Biso   1.000  H
  H24      1.0000 0.95480  0.65620  0.95480  Biso   1.000  H
  C1       1.0000 0.02688  0.53930  0.02688  Biso   1.000  C
  C2       1.0000 0.53930  0.02688  0.40694  Biso   1.000  C
  C3       1.0000 0.02688  0.40694  0.02688  Biso   1.000  C
  C4       1.0000 0.40694  0.02688  0.53930  Biso   1.000  C
  C5       1.0000 0.02688  0.02688  0.40694  Biso   1.000  C
  C6       1.0000 0.53930  0.40694  0.02688  Biso   1.000  C
  C7       1.0000 0.02688  0.02688  0.53930  Biso   1.000  C
  C8       1.0000 0.40694  0.53930  0.02688  Biso   1.000  C
  C9       1.0000 0.02688  0.40694  0.53930  Biso   1.000  C
  C10      1.0000 0.53930  0.02688  0.02688  Biso   1.000  C
  C11      1.0000 0.02688  0.53930  0.40694  Biso   1.000  C
  C12      1.0000 0.40694  0.02688  0.02688  Biso   1.000  C
  C13      1.0000 0.46070  0.97312  0.97312  Biso   1.000  C
  C14      1.0000 0.97312  0.46070  0.59306  Biso   1.000  C
  C15      1.0000 0.59306  0.97312  0.97312  Biso   1.000  C
  C16      1.0000 0.97312  0.59306  0.46070  Biso   1.000  C
  C17      1.0000 0.97312  0.97312  0.59306  Biso   1.000  C
  C18      1.0000 0.59306  0.46070  0.97312  Biso   1.000  C
  C19      1.0000 0.97312  0.97312  0.46070  Biso   1.000  C
  C20      1.0000 0.46070  0.59306  0.97312  Biso   1.000  C
  C21      1.0000 0.59306  0.97312  0.46070  Biso   1.000  C
  C22      1.0000 0.97312  0.46070  0.97312  Biso   1.000  C
  C23      1.0000 0.46070  0.97312  0.59306  Biso   1.000  C
  C24      1.0000 0.97312  0.59306  0.97312  Biso   1.000  C
  C25      1.0000 0.11142  0.38858  0.11142  Biso   1.000  C
  C26      1.0000 0.05381  0.44619  0.05381  Biso   1.000  C
  C27      1.0000 0.38858  0.11142  0.38858  Biso   1.000  C
  C28      1.0000 0.44619  0.05381  0.44619  Biso   1.000  C
  C29      1.0000 0.11142  0.11142  0.38858  Biso   1.000  C
  C30      1.0000 0.05381  0.05381  0.44619  Biso   1.000  C
  C31      1.0000 0.38858  0.38858  0.11142  Biso   1.000  C
  C32      1.0000 0.44619  0.44619  0.05381  Biso   1.000  C
  C33      1.0000 0.11142  0.38858  0.38858  Biso   1.000  C
  C34      1.0000 0.05381  0.44619  0.44619  Biso   1.000  C
  C35      1.0000 0.38858  0.11142  0.11142  Biso   1.000  C
  C36      1.0000 0.44619  0.05381  0.05381  Biso   1.000  C
  C37      1.0000 0.61142  0.88858  0.88858  Biso   1.000  C
  C38      1.0000 0.55381  0.94619  0.94619  Biso   1.000  C
  C39      1.0000 0.88858  0.61142  0.61142  Biso   1.000  C
  C40      1.0000 0.94619  0.55381  0.55381  Biso   1.000  C
  C41      1.0000 0.88858  0.88858  0.61142  Biso   1.000  C
  C42      1.0000 0.94619  0.94619  0.55381  Biso   1.000  C
  C43      1.0000 0.61142  0.61142  0.88858  Biso   1.000  C
  C44      1.0000 0.55381  0.55381  0.94619  Biso   1.000  C
  C45      1.0000 0.61142  0.88858  0.61142  Biso   1.000  C
  C46      1.0000 0.55381  0.94619  0.55381  Biso   1.000  C
  C47      1.0000 0.88858  0.61142  0.88858  Biso   1.000  C
  C48      1.0000 0.94619  0.55381  0.94619  Biso   1.000  C
  O1       1.0000 0.25000  0.25000  0.25000  Biso   1.000  O
  O2       1.0000 0.75000  0.75000  0.75000  Biso   1.000  O
  O3       1.0000 0.13369  0.42773  0.13369  Biso   1.000  O
  O4       1.0000 0.42773  0.13369  0.30489  Biso   1.000  O
  O5       1.0000 0.13369  0.30489  0.13369  Biso   1.000  O
  O6       1.0000 0.30489  0.13369  0.42773  Biso   1.000  O
  O7       1.0000 0.13369  0.13369  0.30489  Biso   1.000  O
  O8       1.0000 0.42773  0.30489  0.13369  Biso   1.000  O
  O9       1.0000 0.13369  0.13369  0.42773  Biso   1.000  O
  O10      1.0000 0.30489  0.42773  0.13369  Biso   1.000  O
  O11      1.0000 0.13369  0.30489  0.42773  Biso   1.000  O
  O12      1.0000 0.42773  0.13369  0.13369  Biso   1.000  O
  O13      1.0000 0.13369  0.42773  0.30489  Biso   1.000  O
  O14      1.0000 0.30489  0.13369  0.13369  Biso   1.000  O
  O15      1.0000 0.57227  0.86631  0.86631  Biso   1.000  O
  O16      1.0000 0.86631  0.57227  0.69511  Biso   1.000  O
  O17      1.0000 0.69511  0.86631  0.86631  Biso   1.000  O
  O18      1.0000 0.86631  0.69511  0.57227  Biso   1.000  O
  O19      1.0000 0.86631  0.86631  0.69511  Biso   1.000  O
  O20      1.0000 0.69511  0.57227  0.86631  Biso   1.000  O
  O21      1.0000 0.86631  0.86631  0.57227  Biso   1.000  O
  O22      1.0000 0.57227  0.69511  0.86631  Biso   1.000  O
  O23      1.0000 0.69511  0.86631  0.57227  Biso   1.000  O
  O24      1.0000 0.86631  0.57227  0.86631  Biso   1.000  O
  O25      1.0000 0.57227  0.86631  0.69511  Biso   1.000  O
  O26      1.0000 0.86631  0.69511  0.86631  Biso   1.000  O
  Zn9      1.0000 0.16382  0.00000  0.00000  Biso   1.000  Zn
  Zn10     1.0000 0.57833  0.58548  0.41453  Biso   1.000  Zn
  Zn11     1.0000 0.57832  0.41170  0.41453  Biso   1.000  Zn
  Zn12     1.0000 0.16382  0.82622  0.00000  Biso   1.000  Zn
  Zn13     1.0000 0.16356  0.00020  0.82608  Biso   1.000  Zn
  Zn14     1.0000 0.98969  0.00007  0.00021  Biso   1.000  Zn
  Zn15     1.0000 0.57858  0.41150  0.58846  Biso   1.000  Zn
  Zn16     1.0000 0.75245  0.41163  0.41433  Biso   1.000  Zn
  H25      1.0000 0.32819  0.64060  0.85907  Biso   1.000  H
  H26      1.0000 0.31957  0.85931  0.64587  Biso   1.000  H
  H27      1.0000 0.02830  0.64257  0.16058  Biso   1.000  H
  H28      1.0000 0.80461  0.86048  0.16587  Biso   1.000  H
  H29      1.0000 0.32990  0.85988  0.15879  Biso   1.000  H
  H30      1.0000 0.41396  0.24951  0.55546  Biso   1.000  H
  H31      1.0000 0.42257  0.24641  0.76867  Biso   1.000  H
  H32      1.0000 0.71384  0.25312  0.25395  Biso   1.000  H
  H33      1.0000 0.93753  0.25262  0.24867  Biso   1.000  H
  H34      1.0000 0.41225  0.77022  0.25574  Biso   1.000  H
  H35      1.0000 0.41395  0.77110  0.55546  Biso   1.000  H
  H36      1.0000 0.42257  0.55239  0.76867  Biso   1.000  H
  H37      1.0000 0.71384  0.76913  0.25395  Biso   1.000  H
  H38      1.0000 0.93753  0.55123  0.24867  Biso   1.000  H
  H39      1.0000 0.41225  0.55182  0.25574  Biso   1.000  H
  H40      1.0000 0.32819  0.16219  0.85907  Biso   1.000  H
  H41      1.0000 0.31958  0.16529  0.64587  Biso   1.000  H
  H42      1.0000 0.02830  0.15858  0.16058  Biso   1.000  H
  H43      1.0000 0.80462  0.15908  0.16587  Biso   1.000  H
  H44      1.0000 0.32990  0.64148  0.15879  Biso   1.000  H
  H45      1.0000 0.80849  0.16089  0.85977  Biso   1.000  H
  H46      1.0000 0.02087  0.16359  0.64198  Biso   1.000  H
  H47      1.0000 0.93366  0.25081  0.55477  Biso   1.000  H
  H48      1.0000 0.72127  0.24811  0.77255  Biso   1.000  H
  C49      1.0000 0.25859  0.81654  0.82050  Biso   1.000  C
  C50      1.0000 0.31699  0.75973  0.76029  Biso   1.000  C
  C51      1.0000 0.34702  0.66701  0.79697  Biso   1.000  C
  C52      1.0000 0.34051  0.79731  0.67138  Biso   1.000  C
  C53      1.0000 0.98212  0.81772  0.09620  Biso   1.000  C
  C54      1.0000 0.92521  0.76220  0.15291  Biso   1.000  C
  C55      1.0000 0.96641  0.66819  0.17803  Biso   1.000  C
  C56      1.0000 0.83212  0.79868  0.18142  Biso   1.000  C
  C57      1.0000 0.34614  0.79798  0.17823  Biso   1.000  C
  C58      1.0000 0.48356  0.31729  0.59404  Biso   1.000  C
  C59      1.0000 0.42516  0.25868  0.65424  Biso   1.000  C
  C60      1.0000 0.39512  0.23267  0.61756  Biso   1.000  C
  C61      1.0000 0.40164  0.23087  0.74315  Biso   1.000  C
  C62      1.0000 0.76002  0.31770  0.31834  Biso   1.000  C
  C63      1.0000 0.81693  0.26199  0.26163  Biso   1.000  C
  C64      1.0000 0.77574  0.23428  0.23651  Biso   1.000  C
  C65      1.0000 0.91002  0.23388  0.23312  Biso   1.000  C
  C66      1.0000 0.39600  0.74401  0.23631  Biso   1.000  C
  C67      1.0000 0.48356  0.59516  0.59404  Biso   1.000  C
  C68      1.0000 0.42516  0.65197  0.65424  Biso   1.000  C
  C69      1.0000 0.39512  0.74469  0.61756  Biso   1.000  C
  C70      1.0000 0.40164  0.61439  0.74315  Biso   1.000  C
  C71      1.0000 0.76003  0.59398  0.31834  Biso   1.000  C
  C72      1.0000 0.81693  0.64950  0.26163  Biso   1.000  C
  C73      1.0000 0.77573  0.74351  0.23651  Biso   1.000  C
  C74      1.0000 0.91002  0.61302  0.23312  Biso   1.000  C
  C75      1.0000 0.39600  0.61372  0.23631  Biso   1.000  C
  C76      1.0000 0.25859  0.09442  0.82050  Biso   1.000  C
  C77      1.0000 0.31699  0.15302  0.76029  Biso   1.000  C
  C78      1.0000 0.34702  0.17904  0.79697  Biso   1.000  C
  C79      1.0000 0.34051  0.18084  0.67138  Biso   1.000  C
  C80      1.0000 0.98212  0.09400  0.09620  Biso   1.000  C
  C81      1.0000 0.92521  0.14971  0.15291  Biso   1.000  C
  C82      1.0000 0.96641  0.17742  0.17803  Biso   1.000  C
  C83      1.0000 0.83213  0.17782  0.18142  Biso   1.000  C
  C84      1.0000 0.34615  0.66769  0.17823  Biso   1.000  C
  C85      1.0000 0.98390  0.09611  0.81392  Biso   1.000  C
  C86      1.0000 0.92490  0.15203  0.76109  Biso   1.000  C
  C87      1.0000 0.83500  0.17854  0.79797  Biso   1.000  C
  C88      1.0000 0.95878  0.18094  0.66939  Biso   1.000  C
  C89      1.0000 0.25780  0.82061  0.09101  Biso   1.000  C
  C90      1.0000 0.31601  0.76061  0.15281  Biso   1.000  C
  C91      1.0000 0.75824  0.31559  0.60062  Biso   1.000  C
  C92      1.0000 0.81725  0.25967  0.65344  Biso   1.000  C
  C93      1.0000 0.90715  0.23316  0.61656  Biso   1.000  C
  C94      1.0000 0.78337  0.23077  0.74514  Biso   1.000  C
  C95      1.0000 0.48434  0.59109  0.32352  Biso   1.000  C
  C96      1.0000 0.42613  0.65109  0.26172  Biso   1.000  C
  O27      1.0000 0.23656  0.90196  0.77714  Biso   1.000  O
  O28      1.0000 0.23895  0.77617  0.90293  Biso   1.000  O
  O29      1.0000 0.94135  0.90304  0.07098  Biso   1.000  O
  O30      1.0000 0.06614  0.77766  0.07377  Biso   1.000  O
  O31      1.0000 0.23687  0.90334  0.07148  Biso   1.000  O
  O32      1.0000 0.50559  0.33732  0.63740  Biso   1.000  O
  O33      1.0000 0.50319  0.33972  0.51161  Biso   1.000  O
  O34      1.0000 0.80079  0.33703  0.34356  Biso   1.000  O
  O35      1.0000 0.67600  0.33923  0.34077  Biso   1.000  O
  O36      1.0000 0.50528  0.63335  0.34306  Biso   1.000  O
  O37      1.0000 0.50559  0.50974  0.63740  Biso   1.000  O
  O38      1.0000 0.50319  0.63553  0.51161  Biso   1.000  O
  O39      1.0000 0.80079  0.50866  0.34356  Biso   1.000  O
  O40      1.0000 0.67601  0.63405  0.34077  Biso   1.000  O
  O41      1.0000 0.50527  0.50836  0.34306  Biso   1.000  O
  O42      1.0000 0.23656  0.07438  0.77714  Biso   1.000  O
  O43      1.0000 0.23896  0.07199  0.90293  Biso   1.000  O
  O44      1.0000 0.94136  0.07467  0.07098  Biso   1.000  O
  O45      1.0000 0.06614  0.07248  0.07377  Biso   1.000  O
  O46      1.0000 0.23687  0.77835  0.07148  Biso   1.000  O
  O47      1.0000 0.12025  0.95677  0.95625  Biso   1.000  O
  O48      1.0000 0.06593  0.07299  0.77814  Biso   1.000  O
  O49      1.0000 0.94264  0.07458  0.89824  Biso   1.000  O
  O50      1.0000 0.62189  0.45494  0.45828  Biso   1.000  O
  O51      1.0000 0.67622  0.33871  0.63640  Biso   1.000  O
