data_image0
_cell_length_a       18.3063
_cell_length_b       18.3063
_cell_length_c       18.3063
_cell_angle_alpha    60
_cell_angle_beta     60
_cell_angle_gamma    60

_symmetry_space_group_name_H-M    "P 1"
_symmetry_int_tables_number       1

loop_
  _symmetry_equiv_pos_as_xyz
  'x, y, z'

loop_
  _atom_site_label
  _atom_site_occupancy
  _atom_site_fract_x
  _atom_site_fract_y
  _atom_site_fract_z
  _atom_site_thermal_displace_type
  _atom_site_B_iso_or_equiv
  _atom_site_type_symbol
  C1       1.0000 0.20664  0.38006  0.20665  Biso   1.000  C
  C2       1.0000 0.38005  0.20665  0.20665  Biso   1.000  C
  C3       1.0000 0.20664  0.20665  0.20665  Biso   1.000  C
  C4       1.0000 0.20664  0.20665  0.38006  Biso   1.000  C
  C5       1.0000 0.61995  0.79335  0.79335  Biso   1.000  C
  C6       1.0000 0.79336  0.61994  0.79335  Biso   1.000  C
  C7       1.0000 0.79336  0.79335  0.79335  Biso   1.000  C
  C8       1.0000 0.79336  0.79335  0.61994  Biso   1.000  C
  C9       1.0000 0.04520  0.56560  0.04520  Biso   1.000  C
  C10      1.0000 0.56560  0.04520  0.34400  Biso   1.000  C
  C11      1.0000 0.04520  0.34400  0.04520  Biso   1.000  C
  C12      1.0000 0.34400  0.04520  0.56560  Biso   1.000  C
  C13      1.0000 0.04520  0.04520  0.34400  Biso   1.000  C
  C14      1.0000 0.56560  0.34400  0.04520  Biso   1.000  C
  C15      1.0000 0.04520  0.04520  0.56560  Biso   1.000  C
  C16      1.0000 0.34400  0.56560  0.04520  Biso   1.000  C
  C17      1.0000 0.04520  0.34400  0.56560  Biso   1.000  C
  C18      1.0000 0.56560  0.04520  0.04520  Biso   1.000  C
  C19      1.0000 0.04520  0.56560  0.34400  Biso   1.000  C
  C20      1.0000 0.34400  0.04520  0.04520  Biso   1.000  C
  C21      1.0000 0.43440  0.95480  0.95480  Biso   1.000  C
  C22      1.0000 0.95480  0.43440  0.65600  Biso   1.000  C
  C23      1.0000 0.65600  0.95480  0.95480  Biso   1.000  C
  C24      1.0000 0.95480  0.65600  0.43440  Biso   1.000  C
  C25      1.0000 0.95480  0.95480  0.65600  Biso   1.000  C
  C26      1.0000 0.65600  0.43440  0.95480  Biso   1.000  C
  C27      1.0000 0.95480  0.95480  0.43440  Biso   1.000  C
  C28      1.0000 0.43440  0.65600  0.95480  Biso   1.000  C
  C29      1.0000 0.65600  0.95480  0.43440  Biso   1.000  C
  C30      1.0000 0.95480  0.43440  0.95480  Biso   1.000  C
  C31      1.0000 0.43440  0.95480  0.65600  Biso   1.000  C
  C32      1.0000 0.95480  0.65600  0.95480  Biso   1.000  C
  C33      1.0000 0.02683  0.53905  0.02683  Biso   1.000  C
  C34      1.0000 0.53905  0.02683  0.40729  Biso   1.000  C
  C35      1.0000 0.02683  0.40729  0.02683  Biso   1.000  C
  C36      1.0000 0.40729  0.02683  0.53905  Biso   1.000  C
  C37      1.0000 0.02683  0.02683  0.40729  Biso   1.000  C
  C38      1.0000 0.53905  0.40729  0.02683  Biso   1.000  C
  C39      1.0000 0.02683  0.02683  0.53905  Biso   1.000  C
  C40      1.0000 0.40729  0.53905  0.02683  Biso   1.000  C
  C41      1.0000 0.02683  0.40729  0.53905  Biso   1.000  C
  C42      1.0000 0.53905  0.02683  0.02683  Biso   1.000  C
  C43      1.0000 0.02683  0.53905  0.40729  Biso   1.000  C
  C44      1.0000 0.40729  0.02683  0.02683  Biso   1.000  C
  C45      1.0000 0.46095  0.97317  0.97317  Biso   1.000  C
  C46      1.0000 0.97317  0.46095  0.59271  Biso   1.000  C
  C47      1.0000 0.59271  0.97317  0.97317  Biso   1.000  C
  C48      1.0000 0.97317  0.59271  0.46095  Biso   1.000  C
  C49      1.0000 0.97317  0.97317  0.59271  Biso   1.000  C
  C50      1.0000 0.59271  0.46095  0.97317  Biso   1.000  C
  C51      1.0000 0.97317  0.97317  0.46095  Biso   1.000  C
  C52      1.0000 0.46095  0.59271  0.97317  Biso   1.000  C
  C53      1.0000 0.59271  0.97317  0.46095  Biso   1.000  C
  C54      1.0000 0.97317  0.46095  0.97317  Biso   1.000  C
  C55      1.0000 0.46095  0.97317  0.59271  Biso   1.000  C
  C56      1.0000 0.97317  0.59271  0.97317  Biso   1.000  C
  C57      1.0000 0.11144  0.38856  0.11144  Biso   1.000  C
  C58      1.0000 0.05381  0.44619  0.05381  Biso   1.000  C
  C59      1.0000 0.38856  0.11144  0.38856  Biso   1.000  C
  C60      1.0000 0.44619  0.05381  0.44619  Biso   1.000  C
  C61      1.0000 0.11144  0.11144  0.38856  Biso   1.000  C
  C62      1.0000 0.05381  0.05381  0.44619  Biso   1.000  C
  C63      1.0000 0.38856  0.38856  0.11144  Biso   1.000  C
  C64      1.0000 0.44619  0.44619  0.05381  Biso   1.000  C
  C65      1.0000 0.11144  0.38856  0.38856  Biso   1.000  C
  C66      1.0000 0.05381  0.44619  0.44619  Biso   1.000  C
  C67      1.0000 0.38856  0.11144  0.11144  Biso   1.000  C
  C68      1.0000 0.44619  0.05381  0.05381  Biso   1.000  C
  C69      1.0000 0.61144  0.88856  0.88856  Biso   1.000  C
  C70      1.0000 0.55381  0.94619  0.94619  Biso   1.000  C
  C71      1.0000 0.88856  0.61144  0.61144  Biso   1.000  C
  C72      1.0000 0.94619  0.55381  0.55381  Biso   1.000  C
  C73      1.0000 0.88856  0.88856  0.61144  Biso   1.000  C
  C74      1.0000 0.94619  0.94619  0.55381  Biso   1.000  C
  C75      1.0000 0.61144  0.61144  0.88856  Biso   1.000  C
  C76      1.0000 0.55381  0.55381  0.94619  Biso   1.000  C
  C77      1.0000 0.61144  0.88856  0.61144  Biso   1.000  C
  C78      1.0000 0.55381  0.94619  0.55381  Biso   1.000  C
  C79      1.0000 0.88856  0.61144  0.88856  Biso   1.000  C
  C80      1.0000 0.94619  0.55381  0.94619  Biso   1.000  C
  C81      1.0000 0.25000  0.25000  0.25000  Biso   1.000  C
  C82      1.0000 0.75000  0.75000  0.75000  Biso   1.000  C
  C83      1.0000 0.13368  0.42768  0.13368  Biso   1.000  C
  C84      1.0000 0.42768  0.13368  0.30496  Biso   1.000  C
  C85      1.0000 0.13368  0.30496  0.13368  Biso   1.000  C
  C86      1.0000 0.30496  0.13368  0.42768  Biso   1.000  C
  C87      1.0000 0.13368  0.13368  0.30496  Biso   1.000  C
  C88      1.0000 0.42768  0.30496  0.13368  Biso   1.000  C
  C89      1.0000 0.13368  0.13368  0.42768  Biso   1.000  C
  C90      1.0000 0.30496  0.42768  0.13368  Biso   1.000  C
  C91      1.0000 0.13368  0.30496  0.42768  Biso   1.000  C
  C92      1.0000 0.42768  0.13368  0.13368  Biso   1.000  C
  C93      1.0000 0.13368  0.42768  0.30496  Biso   1.000  C
  C94      1.0000 0.30496  0.13368  0.13368  Biso   1.000  C
  C95      1.0000 0.57232  0.86632  0.86632  Biso   1.000  C
  C96      1.0000 0.86632  0.57232  0.69504  Biso   1.000  C
  C97      1.0000 0.69504  0.86632  0.86632  Biso   1.000  C
  C98      1.0000 0.86632  0.69504  0.57232  Biso   1.000  C
  C99      1.0000 0.86632  0.86632  0.69504  Biso   1.000  C
  C100     1.0000 0.69504  0.57232  0.86632  Biso   1.000  C
  C101     1.0000 0.86632  0.86632  0.57232  Biso   1.000  C
  C102     1.0000 0.57232  0.69504  0.86632  Biso   1.000  C
  C103     1.0000 0.69504  0.86632  0.57232  Biso   1.000  C
  C104     1.0000 0.86632  0.57232  0.86632  Biso   1.000  C
  C105     1.0000 0.57232  0.86632  0.69504  Biso   1.000  C
  C106     1.0000 0.86632  0.69504  0.86632  Biso   1.000  C
  O1       1.0000 0.00000  0.00000  0.00000  Biso   1.000  O
  O2       1.0000 1.00000  1.00000  0.17368  Biso   1.000  O
  O3       1.0000 0.82632  1.00000  0.17368  Biso   1.000  O
  O4       1.0000 1.00000  0.82632  0.17368  Biso   1.000  O
  O5       1.0000 0.41262  0.41260  0.75996  Biso   1.000  O
  O6       1.0000 0.41262  0.41260  0.58628  Biso   1.000  O
  O7       1.0000 0.41262  0.58628  0.58628  Biso   1.000  O
  O8       1.0000 0.58630  0.41260  0.58628  Biso   1.000  O
  O9       1.0000 0.16136  0.16135  0.81470  Biso   1.000  O
  O10      1.0000 0.16136  0.16135  0.03516  Biso   1.000  O
  O11      1.0000 0.64103  0.86148  0.33503  Biso   1.000  O
  O12      1.0000 0.86149  0.64102  0.33503  Biso   1.000  O
  O13      1.0000 0.16136  0.64102  0.03516  Biso   1.000  O
  O14      1.0000 0.16136  0.86148  0.81470  Biso   1.000  O
  O15      1.0000 0.64103  0.16135  0.33503  Biso   1.000  O
  O16      1.0000 0.86149  0.16135  0.33503  Biso   1.000  O
  O17      1.0000 0.16136  0.86148  0.33503  Biso   1.000  O
  O18      1.0000 0.16136  0.64102  0.33503  Biso   1.000  O
  O19      1.0000 0.64103  0.16135  0.03516  Biso   1.000  O
  O20      1.0000 0.86149  0.16135  0.81470  Biso   1.000  O
  O21      1.0000 0.25126  0.25125  0.94526  Biso   1.000  O
  O22      1.0000 0.25126  0.25125  0.72480  Biso   1.000  O
  O23      1.0000 0.55113  0.77158  0.42493  Biso   1.000  O
  O24      1.0000 0.77159  0.55112  0.42493  Biso   1.000  O
  O25      1.0000 0.77159  0.25125  0.72480  Biso   1.000  O
  O26      1.0000 0.55113  0.25125  0.94526  Biso   1.000  O
  O27      1.0000 0.25126  0.77158  0.42493  Biso   1.000  O
  O28      1.0000 0.25126  0.55112  0.42493  Biso   1.000  O
  O29      1.0000 0.55113  0.25125  0.42493  Biso   1.000  O
  O30      1.0000 0.77159  0.25125  0.42493  Biso   1.000  O
  O31      1.0000 0.25126  0.77158  0.72480  Biso   1.000  O
  O32      1.0000 0.25126  0.55112  0.94526  Biso   1.000  O
  O33      1.0000 0.17956  0.17955  0.84159  Biso   1.000  O
  O34      1.0000 0.17956  0.17955  0.97187  Biso   1.000  O
  O35      1.0000 0.66792  0.79819  0.35323  Biso   1.000  O
  O36      1.0000 0.79820  0.66791  0.35323  Biso   1.000  O
  O37      1.0000 0.17956  0.66791  0.97187  Biso   1.000  O
  O38      1.0000 0.17956  0.79819  0.84159  Biso   1.000  O
  O39      1.0000 0.66792  0.17955  0.35323  Biso   1.000  O
  O40      1.0000 0.79820  0.17955  0.35323  Biso   1.000  O
  O41      1.0000 0.17956  0.79819  0.35323  Biso   1.000  O
  O42      1.0000 0.17956  0.66791  0.35323  Biso   1.000  O
  O43      1.0000 0.66792  0.17955  0.97187  Biso   1.000  O
  O44      1.0000 0.79820  0.17955  0.84159  Biso   1.000  O
  O45      1.0000 0.23306  0.23305  0.91837  Biso   1.000  O
  O46      1.0000 0.23306  0.23305  0.78809  Biso   1.000  O
  O47      1.0000 0.61442  0.74469  0.40673  Biso   1.000  O
  O48      1.0000 0.74470  0.61441  0.40673  Biso   1.000  O
  O49      1.0000 0.74470  0.23305  0.78809  Biso   1.000  O
  O50      1.0000 0.61442  0.23305  0.91837  Biso   1.000  O
  O51      1.0000 0.23306  0.74469  0.40673  Biso   1.000  O
  O52      1.0000 0.23306  0.61441  0.40673  Biso   1.000  O
  O53      1.0000 0.61442  0.23305  0.40673  Biso   1.000  O
  O54      1.0000 0.74470  0.23305  0.40673  Biso   1.000  O
  O55      1.0000 0.23306  0.74469  0.78809  Biso   1.000  O
  O56      1.0000 0.23306  0.61441  0.91837  Biso   1.000  O
  O57      1.0000 0.09484  0.09483  0.99201  Biso   1.000  O
  O58      1.0000 0.15276  0.15275  0.93408  Biso   1.000  O
  O59      1.0000 0.81834  0.81833  0.26850  Biso   1.000  O
  O60      1.0000 0.76041  0.76040  0.32643  Biso   1.000  O
  O61      1.0000 0.09484  0.81833  0.99201  Biso   1.000  O
  O62      1.0000 0.15276  0.76040  0.93408  Biso   1.000  O
  O63      1.0000 0.81834  0.09483  0.26850  Biso   1.000  O
  O64      1.0000 0.76041  0.15275  0.32643  Biso   1.000  O
  O65      1.0000 0.09484  0.81833  0.26850  Biso   1.000  O
  O66      1.0000 0.15276  0.76040  0.32643  Biso   1.000  O
  O67      1.0000 0.81834  0.09483  0.99201  Biso   1.000  O
  O68      1.0000 0.76041  0.15275  0.93408  Biso   1.000  O
  O69      1.0000 0.31779  0.31778  0.76795  Biso   1.000  O
  O70      1.0000 0.25986  0.25985  0.82588  Biso   1.000  O
  O71      1.0000 0.59428  0.59427  0.49146  Biso   1.000  O
  O72      1.0000 0.65221  0.65220  0.43353  Biso   1.000  O
  O73      1.0000 0.59428  0.31778  0.76795  Biso   1.000  O
  O74      1.0000 0.65221  0.25985  0.82588  Biso   1.000  O
  O75      1.0000 0.31779  0.59427  0.49146  Biso   1.000  O
  O76      1.0000 0.25986  0.65220  0.43353  Biso   1.000  O
  O77      1.0000 0.59428  0.31778  0.49146  Biso   1.000  O
  O78      1.0000 0.65221  0.25985  0.43353  Biso   1.000  O
  O79      1.0000 0.31779  0.59427  0.76795  Biso   1.000  O
  O80      1.0000 0.25986  0.65220  0.82588  Biso   1.000  O
  O81      1.0000 0.95659  0.95658  0.13026  Biso   1.000  O
  O82      1.0000 0.45604  0.45603  0.62970  Biso   1.000  O
  O83      1.0000 0.07258  0.07257  0.95343  Biso   1.000  O
  O84      1.0000 0.07258  0.07257  0.07510  Biso   1.000  O
  O85      1.0000 0.77976  0.90142  0.24625  Biso   1.000  O
  O86      1.0000 0.90143  0.77975  0.24625  Biso   1.000  O
  O87      1.0000 0.07258  0.77975  0.07510  Biso   1.000  O
  O88      1.0000 0.07258  0.90142  0.95343  Biso   1.000  O
  O89      1.0000 0.77976  0.07257  0.24625  Biso   1.000  O
  O90      1.0000 0.90143  0.07257  0.24625  Biso   1.000  O
  O91      1.0000 0.07258  0.90142  0.24625  Biso   1.000  O
  O92      1.0000 0.07258  0.77975  0.24625  Biso   1.000  O
  O93      1.0000 0.77976  0.07257  0.07510  Biso   1.000  O
  O94      1.0000 0.90143  0.07257  0.95343  Biso   1.000  O
  O95      1.0000 0.34004  0.34003  0.80653  Biso   1.000  O
  O96      1.0000 0.34004  0.34003  0.68486  Biso   1.000  O
  O97      1.0000 0.51120  0.63285  0.51371  Biso   1.000  O
  O98      1.0000 0.63286  0.51119  0.51371  Biso   1.000  O
  O99      1.0000 0.63286  0.34003  0.68486  Biso   1.000  O
  O100     1.0000 0.51120  0.34003  0.80653  Biso   1.000  O
  O101     1.0000 0.34004  0.63285  0.51371  Biso   1.000  O
  O102     1.0000 0.34004  0.51119  0.51371  Biso   1.000  O
  O103     1.0000 0.51120  0.34003  0.51371  Biso   1.000  O
  O104     1.0000 0.63286  0.34003  0.51371  Biso   1.000  O
  O105     1.0000 0.34004  0.63285  0.68486  Biso   1.000  O
