data_image0
_cell_length_a       18.3063
_cell_length_b       18.3063
_cell_length_c       18.3063
_cell_angle_alpha    60
_cell_angle_beta     60
_cell_angle_gamma    60

_symmetry_space_group_name_H-M    "P 1"
_symmetry_int_tables_number       1

loop_
  _symmetry_equiv_pos_as_xyz
  'x, y, z'

loop_
  _atom_site_label
  _atom_site_occupancy
  _atom_site_fract_x
  _atom_site_fract_y
  _atom_site_fract_z
  _atom_site_thermal_displace_type
  _atom_site_B_iso_or_equiv
  _atom_site_type_symbol
  Zn1      1.0000 0.20664  0.38006  0.20665  Biso   1.000  Zn
  Zn2      1.0000 0.38005  0.20665  0.20665  Biso   1.000  Zn
  Zn3      1.0000 0.20664  0.20665  0.20665  Biso   1.000  Zn
  Zn4      1.0000 0.20664  0.20665  0.38006  Biso   1.000  Zn
  Zn5      1.0000 0.61995  0.79335  0.79335  Biso   1.000  Zn
  Zn6      1.0000 0.79336  0.61994  0.79335  Biso   1.000  Zn
  Zn7      1.0000 0.79336  0.79335  0.79335  Biso   1.000  Zn
  Zn8      1.0000 0.79336  0.79335  0.61994  Biso   1.000  Zn
  H1       1.0000 0.04520  0.56560  0.04520  Biso   1.000  H
  H2       1.0000 0.56560  0.04520  0.34400  Biso   1.000  H
  H3       1.0000 0.04520  0.34400  0.04520  Biso   1.000  H
  H4       1.0000 0.34400  0.04520  0.56560  Biso   1.000  H
  H5       1.0000 0.04520  0.04520  0.34400  Biso   1.000  H
  H6       1.0000 0.56560  0.34400  0.04520  Biso   1.000  H
  H7       1.0000 0.04520  0.04520  0.56560  Biso   1.000  H
  H8       1.0000 0.34400  0.56560  0.04520  Biso   1.000  H
  H9       1.0000 0.04520  0.34400  0.56560  Biso   1.000  H
  H10      1.0000 0.56560  0.04520  0.04520  Biso   1.000  H
  H11      1.0000 0.04520  0.56560  0.34400  Biso   1.000  H
  H12      1.0000 0.34400  0.04520  0.04520  Biso   1.000  H
  H13      1.0000 0.43440  0.95480  0.95480  Biso   1.000  H
  H14      1.0000 0.95480  0.43440  0.65600  Biso   1.000  H
  H15      1.0000 0.65600  0.95480  0.95480  Biso   1.000  H
  H16      1.0000 0.95480  0.65600  0.43440  Biso   1.000  H
  H17      1.0000 0.95480  0.95480  0.65600  Biso   1.000  H
  H18      1.0000 0.65600  0.43440  0.95480  Biso   1.000  H
  H19      1.0000 0.95480  0.95480  0.43440  Biso   1.000  H
  H20      1.0000 0.43440  0.65600  0.95480  Biso   1.000  H
  H21      1.0000 0.65600  0.95480  0.43440  Biso   1.000  H
  H22      1.0000 0.95480  0.43440  0.95480  Biso   1.000  H
  H23      1.0000 0.43440  0.95480  0.65600  Biso   1.000  H
  H24      1.0000 0.95480  0.65600  0.95480  Biso   1.000  H
  C1       1.0000 0.02683  0.53905  0.02683  Biso   1.000  C
  C2       1.0000 0.53905  0.02683  0.40729  Biso   1.000  C
  C3       1.0000 0.02683  0.40729  0.02683  Biso   1.000  C
  C4       1.0000 0.40729  0.02683  0.53905  Biso   1.000  C
  C5       1.0000 0.02683  0.02683  0.40729  Biso   1.000  C
  C6       1.0000 0.53905  0.40729  0.02683  Biso   1.000  C
  C7       1.0000 0.02683  0.02683  0.53905  Biso   1.000  C
  C8       1.0000 0.40729  0.53905  0.02683  Biso   1.000  C
  C9       1.0000 0.02683  0.40729  0.53905  Biso   1.000  C
  C10      1.0000 0.53905  0.02683  0.02683  Biso   1.000  C
  C11      1.0000 0.02683  0.53905  0.40729  Biso   1.000  C
  C12      1.0000 0.40729  0.02683  0.02683  Biso   1.000  C
  C13      1.0000 0.46095  0.97317  0.97317  Biso   1.000  C
  C14      1.0000 0.97317  0.46095  0.59271  Biso   1.000  C
  C15      1.0000 0.59271  0.97317  0.97317  Biso   1.000  C
  C16      1.0000 0.97317  0.59271  0.46095  Biso   1.000  C
  C17      1.0000 0.97317  0.97317  0.59271  Biso   1.000  C
  C18      1.0000 0.59271  0.46095  0.97317  Biso   1.000  C
  C19      1.0000 0.97317  0.97317  0.46095  Biso   1.000  C
  C20      1.0000 0.46095  0.59271  0.97317  Biso   1.000  C
  C21      1.0000 0.59271  0.97317  0.46095  Biso   1.000  C
  C22      1.0000 0.97317  0.46095  0.97317  Biso   1.000  C
  C23      1.0000 0.46095  0.97317  0.59271  Biso   1.000  C
  C24      1.0000 0.97317  0.59271  0.97317  Biso   1.000  C
  C25      1.0000 0.11144  0.38856  0.11144  Biso   1.000  C
  C26      1.0000 0.05381  0.44619  0.05381  Biso   1.000  C
  C27      1.0000 0.38856  0.11144  0.38856  Biso   1.000  C
  C28      1.0000 0.44619  0.05381  0.44619  Biso   1.000  C
  C29      1.0000 0.11144  0.11144  0.38856  Biso   1.000  C
  C30      1.0000 0.05381  0.05381  0.44619  Biso   1.000  C
  C31      1.0000 0.38856  0.38856  0.11144  Biso   1.000  C
  C32      1.0000 0.44619  0.44619  0.05381  Biso   1.000  C
  C33      1.0000 0.11144  0.38856  0.38856  Biso   1.000  C
  C34      1.0000 0.05381  0.44619  0.44619  Biso   1.000  C
  C35      1.0000 0.38856  0.11144  0.11144  Biso   1.000  C
  C36      1.0000 0.44619  0.05381  0.05381  Biso   1.000  C
  C37      1.0000 0.61144  0.88856  0.88856  Biso   1.000  C
  C38      1.0000 0.55381  0.94619  0.94619  Biso   1.000  C
  C39      1.0000 0.88856  0.61144  0.61144  Biso   1.000  C
  C40      1.0000 0.94619  0.55381  0.55381  Biso   1.000  C
  C41      1.0000 0.88856  0.88856  0.61144  Biso   1.000  C
  C42      1.0000 0.94619  0.94619  0.55381  Biso   1.000  C
  C43      1.0000 0.61144  0.61144  0.88856  Biso   1.000  C
  C44      1.0000 0.55381  0.55381  0.94619  Biso   1.000  C
  C45      1.0000 0.61144  0.88856  0.61144  Biso   1.000  C
  C46      1.0000 0.55381  0.94619  0.55381  Biso   1.000  C
  C47      1.0000 0.88856  0.61144  0.88856  Biso   1.000  C
  C48      1.0000 0.94619  0.55381  0.94619  Biso   1.000  C
  O1       1.0000 0.25000  0.25000  0.25000  Biso   1.000  O
  O2       1.0000 0.75000  0.75000  0.75000  Biso   1.000  O
  O3       1.0000 0.13368  0.42768  0.13368  Biso   1.000  O
  O4       1.0000 0.42768  0.13368  0.30496  Biso   1.000  O
  O5       1.0000 0.13368  0.30496  0.13368  Biso   1.000  O
  O6       1.0000 0.30496  0.13368  0.42768  Biso   1.000  O
  O7       1.0000 0.13368  0.13368  0.30496  Biso   1.000  O
  O8       1.0000 0.42768  0.30496  0.13368  Biso   1.000  O
  O9       1.0000 0.13368  0.13368  0.42768  Biso   1.000  O
  O10      1.0000 0.30496  0.42768  0.13368  Biso   1.000  O
  O11      1.0000 0.13368  0.30496  0.42768  Biso   1.000  O
  O12      1.0000 0.42768  0.13368  0.13368  Biso   1.000  O
  O13      1.0000 0.13368  0.42768  0.30496  Biso   1.000  O
  O14      1.0000 0.30496  0.13368  0.13368  Biso   1.000  O
  O15      1.0000 0.57232  0.86632  0.86632  Biso   1.000  O
  O16      1.0000 0.86632  0.57232  0.69504  Biso   1.000  O
  O17      1.0000 0.69504  0.86632  0.86632  Biso   1.000  O
  O18      1.0000 0.86632  0.69504  0.57232  Biso   1.000  O
  O19      1.0000 0.86632  0.86632  0.69504  Biso   1.000  O
  O20      1.0000 0.69504  0.57232  0.86632  Biso   1.000  O
  O21      1.0000 0.86632  0.86632  0.57232  Biso   1.000  O
  O22      1.0000 0.57232  0.69504  0.86632  Biso   1.000  O
  O23      1.0000 0.69504  0.86632  0.57232  Biso   1.000  O
  O24      1.0000 0.86632  0.57232  0.86632  Biso   1.000  O
  O25      1.0000 0.57232  0.86632  0.69504  Biso   1.000  O
  O26      1.0000 0.86632  0.69504  0.86632  Biso   1.000  O
  Zn9      1.0000 0.00550  0.83847  0.13381  Biso   1.000  Zn
  Zn10     1.0000 0.00550  0.01282  0.13381  Biso   1.000  Zn
  Zn11     1.0000 0.83114  0.01282  0.13381  Biso   1.000  Zn
  Zn12     1.0000 0.00550  0.01282  0.95945  Biso   1.000  Zn
  Zn13     1.0000 0.41792  0.42578  0.54676  Biso   1.000  Zn
  Zn14     1.0000 0.41792  0.60014  0.54676  Biso   1.000  Zn
  Zn15     1.0000 0.59227  0.42578  0.54676  Biso   1.000  Zn
  Zn16     1.0000 0.41792  0.42578  0.72112  Biso   1.000  Zn
  H25      1.0000 0.87463  0.65362  0.29166  Biso   1.000  H
  H26      1.0000 0.16335  0.17068  0.00294  Biso   1.000  H
  H27      1.0000 0.64629  0.88196  0.29166  Biso   1.000  H
  H28      1.0000 0.16335  0.17068  0.77460  Biso   1.000  H
  H29      1.0000 0.64629  0.17068  0.00294  Biso   1.000  H
  H30      1.0000 0.16335  0.88196  0.29166  Biso   1.000  H
  H31      1.0000 0.87463  0.17068  0.77460  Biso   1.000  H
  H32      1.0000 0.16335  0.65362  0.29166  Biso   1.000  H
  H33      1.0000 0.16335  0.88196  0.77460  Biso   1.000  H
  H34      1.0000 0.87463  0.17068  0.29166  Biso   1.000  H
  H35      1.0000 0.16335  0.65362  0.00294  Biso   1.000  H
  H36      1.0000 0.64629  0.17068  0.29166  Biso   1.000  H
  H37      1.0000 0.54878  0.26792  0.38891  Biso   1.000  H
  H38      1.0000 0.26006  0.78499  0.67763  Biso   1.000  H
  H39      1.0000 0.77712  0.26792  0.38891  Biso   1.000  H
  H40      1.0000 0.26006  0.55665  0.90597  Biso   1.000  H
  H41      1.0000 0.77712  0.26792  0.67763  Biso   1.000  H
  H42      1.0000 0.26006  0.78499  0.38891  Biso   1.000  H
  H43      1.0000 0.54878  0.26792  0.90597  Biso   1.000  H
  H44      1.0000 0.26006  0.55665  0.38891  Biso   1.000  H
  H45      1.0000 0.26006  0.26792  0.90597  Biso   1.000  H
  H46      1.0000 0.54878  0.78499  0.38891  Biso   1.000  H
  H47      1.0000 0.26006  0.26792  0.67763  Biso   1.000  H
  H48      1.0000 0.77712  0.55665  0.38891  Biso   1.000  H
  C49      1.0000 0.80395  0.68011  0.31376  Biso   1.000  C
  C50      1.0000 0.18545  0.19278  0.93226  Biso   1.000  C
  C51      1.0000 0.67278  0.81128  0.31376  Biso   1.000  C
  C52      1.0000 0.18545  0.19278  0.80109  Biso   1.000  C
  C53      1.0000 0.67278  0.19278  0.93226  Biso   1.000  C
  C54      1.0000 0.18545  0.81128  0.31376  Biso   1.000  C
  C55      1.0000 0.80395  0.19278  0.80109  Biso   1.000  C
  C56      1.0000 0.18545  0.68011  0.31376  Biso   1.000  C
  C57      1.0000 0.18545  0.81128  0.80109  Biso   1.000  C
  C58      1.0000 0.80395  0.19278  0.31376  Biso   1.000  C
  C59      1.0000 0.18545  0.68011  0.93226  Biso   1.000  C
  C60      1.0000 0.67278  0.19278  0.31376  Biso   1.000  C
  C61      1.0000 0.61946  0.24583  0.36681  Biso   1.000  C
  C62      1.0000 0.23797  0.75849  0.74831  Biso   1.000  C
  C63      1.0000 0.75063  0.24583  0.36681  Biso   1.000  C
  C64      1.0000 0.23797  0.62733  0.87947  Biso   1.000  C
  C65      1.0000 0.75063  0.24583  0.74831  Biso   1.000  C
  C66      1.0000 0.23797  0.75849  0.36681  Biso   1.000  C
  C67      1.0000 0.61946  0.24583  0.87947  Biso   1.000  C
  C68      1.0000 0.23797  0.62733  0.36681  Biso   1.000  C
  C69      1.0000 0.23797  0.24583  0.87947  Biso   1.000  C
  C70      1.0000 0.61946  0.75849  0.36681  Biso   1.000  C
  C71      1.0000 0.23797  0.24583  0.74831  Biso   1.000  C
  C72      1.0000 0.75063  0.62733  0.36681  Biso   1.000  C
  C73      1.0000 0.82244  0.82977  0.22968  Biso   1.000  C
  C74      1.0000 0.76626  0.77359  0.28587  Biso   1.000  C
  C75      1.0000 0.10137  0.10870  0.95075  Biso   1.000  C
  C76      1.0000 0.15755  0.16488  0.89457  Biso   1.000  C
  C77      1.0000 0.82244  0.10870  0.95075  Biso   1.000  C
  C78      1.0000 0.76626  0.16488  0.89457  Biso   1.000  C
  C79      1.0000 0.10137  0.82977  0.22968  Biso   1.000  C
  C80      1.0000 0.15755  0.77359  0.28587  Biso   1.000  C
  C81      1.0000 0.10137  0.82977  0.95075  Biso   1.000  C
  C82      1.0000 0.15755  0.77359  0.89457  Biso   1.000  C
  C83      1.0000 0.82244  0.10870  0.22968  Biso   1.000  C
  C84      1.0000 0.76626  0.16488  0.28587  Biso   1.000  C
  C85      1.0000 0.60097  0.32991  0.45089  Biso   1.000  C
  C86      1.0000 0.65715  0.27372  0.39470  Biso   1.000  C
  C87      1.0000 0.32204  0.60883  0.72981  Biso   1.000  C
  C88      1.0000 0.26586  0.66502  0.78600  Biso   1.000  C
  C89      1.0000 0.60097  0.32991  0.72981  Biso   1.000  C
  C90      1.0000 0.65715  0.27372  0.78600  Biso   1.000  C
  C91      1.0000 0.32204  0.60883  0.45089  Biso   1.000  C
  C92      1.0000 0.26586  0.66502  0.39470  Biso   1.000  C
  C93      1.0000 0.32204  0.32991  0.72981  Biso   1.000  C
  C94      1.0000 0.26586  0.27372  0.78600  Biso   1.000  C
  C95      1.0000 0.60097  0.60883  0.45089  Biso   1.000  C
  C96      1.0000 0.65715  0.66502  0.39470  Biso   1.000  C
  O27      1.0000 0.96191  0.96924  0.09022  Biso   1.000  O
  O28      1.0000 0.46151  0.46937  0.59035  Biso   1.000  O
  O29      1.0000 0.90682  0.79098  0.20689  Biso   1.000  O
  O30      1.0000 0.07858  0.08591  0.03513  Biso   1.000  O
  O31      1.0000 0.78365  0.91415  0.20689  Biso   1.000  O
  O32      1.0000 0.07858  0.08591  0.91197  Biso   1.000  O
  O33      1.0000 0.78365  0.08591  0.03513  Biso   1.000  O
  O34      1.0000 0.07858  0.91415  0.20689  Biso   1.000  O
  O35      1.0000 0.90682  0.08591  0.91197  Biso   1.000  O
  O36      1.0000 0.07858  0.79098  0.20689  Biso   1.000  O
  O37      1.0000 0.07858  0.91415  0.91197  Biso   1.000  O
  O38      1.0000 0.90682  0.08591  0.20689  Biso   1.000  O
  O39      1.0000 0.07858  0.79098  0.03513  Biso   1.000  O
  O40      1.0000 0.78365  0.08591  0.20689  Biso   1.000  O
  O41      1.0000 0.51659  0.35270  0.47368  Biso   1.000  O
  O42      1.0000 0.34484  0.64762  0.64544  Biso   1.000  O
  O43      1.0000 0.63976  0.35270  0.47368  Biso   1.000  O
  O44      1.0000 0.34484  0.52446  0.76860  Biso   1.000  O
  O45      1.0000 0.63976  0.35270  0.64544  Biso   1.000  O
  O46      1.0000 0.34484  0.64762  0.47368  Biso   1.000  O
  O47      1.0000 0.51659  0.35270  0.76860  Biso   1.000  O
  O48      1.0000 0.34484  0.52446  0.47368  Biso   1.000  O
  O49      1.0000 0.34484  0.35270  0.76860  Biso   1.000  O
  O50      1.0000 0.51659  0.64762  0.47368  Biso   1.000  O
  O51      1.0000 0.34484  0.35270  0.64544  Biso   1.000  O
