data_image0
_cell_length_a       18.283
_cell_length_b       18.283
_cell_length_c       18.283
_cell_angle_alpha    60
_cell_angle_beta     60
_cell_angle_gamma    60

_symmetry_space_group_name_H-M    "P 1"
_symmetry_int_tables_number       1

loop_
  _symmetry_equiv_pos_as_xyz
  'x, y, z'

loop_
  _atom_site_label
  _atom_site_occupancy
  _atom_site_fract_x
  _atom_site_fract_y
  _atom_site_fract_z
  _atom_site_thermal_displace_type
  _atom_site_B_iso_or_equiv
  _atom_site_type_symbol
  Zn1      1.0000 0.20657  0.38031  0.20656  Biso   1.000  Zn
  Zn2      1.0000 0.38032  0.20656  0.20656  Biso   1.000  Zn
  Zn3      1.0000 0.20657  0.20656  0.20656  Biso   1.000  Zn
  Zn4      1.0000 0.20657  0.20656  0.38031  Biso   1.000  Zn
  Zn5      1.0000 0.61968  0.79344  0.79344  Biso   1.000  Zn
  Zn6      1.0000 0.79343  0.61969  0.79344  Biso   1.000  Zn
  Zn7      1.0000 0.79343  0.79344  0.79344  Biso   1.000  Zn
  Zn8      1.0000 0.79343  0.79344  0.61969  Biso   1.000  Zn
  H1       1.0000 0.04500  0.56540  0.04500  Biso   1.000  H
  H2       1.0000 0.56540  0.04500  0.34460  Biso   1.000  H
  H3       1.0000 0.04500  0.34460  0.04500  Biso   1.000  H
  H4       1.0000 0.34460  0.04500  0.56540  Biso   1.000  H
  H5       1.0000 0.04500  0.04500  0.34460  Biso   1.000  H
  H6       1.0000 0.56540  0.34460  0.04500  Biso   1.000  H
  H7       1.0000 0.04500  0.04500  0.56540  Biso   1.000  H
  H8       1.0000 0.34460  0.56540  0.04500  Biso   1.000  H
  H9       1.0000 0.04500  0.34460  0.56540  Biso   1.000  H
  H10      1.0000 0.56540  0.04500  0.04500  Biso   1.000  H
  H11      1.0000 0.04500  0.56540  0.34460  Biso   1.000  H
  H12      1.0000 0.34460  0.04500  0.04500  Biso   1.000  H
  H13      1.0000 0.43460  0.95500  0.95500  Biso   1.000  H
  H14      1.0000 0.95500  0.43460  0.65540  Biso   1.000  H
  H15      1.0000 0.65540  0.95500  0.95500  Biso   1.000  H
  H16      1.0000 0.95500  0.65540  0.43460  Biso   1.000  H
  H17      1.0000 0.95500  0.95500  0.65540  Biso   1.000  H
  H18      1.0000 0.65540  0.43460  0.95500  Biso   1.000  H
  H19      1.0000 0.95500  0.95500  0.43460  Biso   1.000  H
  H20      1.0000 0.43460  0.65540  0.95500  Biso   1.000  H
  H21      1.0000 0.65540  0.95500  0.43460  Biso   1.000  H
  H22      1.0000 0.95500  0.43460  0.95500  Biso   1.000  H
  H23      1.0000 0.43460  0.95500  0.65540  Biso   1.000  H
  H24      1.0000 0.95500  0.65540  0.95500  Biso   1.000  H
  C1       1.0000 0.02670  0.53864  0.02670  Biso   1.000  C
  C2       1.0000 0.53864  0.02670  0.40796  Biso   1.000  C
  C3       1.0000 0.02670  0.40796  0.02670  Biso   1.000  C
  C4       1.0000 0.40796  0.02670  0.53864  Biso   1.000  C
  C5       1.0000 0.02670  0.02670  0.40796  Biso   1.000  C
  C6       1.0000 0.53864  0.40796  0.02670  Biso   1.000  C
  C7       1.0000 0.02670  0.02670  0.53864  Biso   1.000  C
  C8       1.0000 0.40796  0.53864  0.02670  Biso   1.000  C
  C9       1.0000 0.02670  0.40796  0.53864  Biso   1.000  C
  C10      1.0000 0.53864  0.02670  0.02670  Biso   1.000  C
  C11      1.0000 0.02670  0.53864  0.40796  Biso   1.000  C
  C12      1.0000 0.40796  0.02670  0.02670  Biso   1.000  C
  C13      1.0000 0.46136  0.97330  0.97330  Biso   1.000  C
  C14      1.0000 0.97330  0.46136  0.59204  Biso   1.000  C
  C15      1.0000 0.59204  0.97330  0.97330  Biso   1.000  C
  C16      1.0000 0.97330  0.59204  0.46136  Biso   1.000  C
  C17      1.0000 0.97330  0.97330  0.59204  Biso   1.000  C
  C18      1.0000 0.59204  0.46136  0.97330  Biso   1.000  C
  C19      1.0000 0.97330  0.97330  0.46136  Biso   1.000  C
  C20      1.0000 0.46136  0.59204  0.97330  Biso   1.000  C
  C21      1.0000 0.59204  0.97330  0.46136  Biso   1.000  C
  C22      1.0000 0.97330  0.46136  0.97330  Biso   1.000  C
  C23      1.0000 0.46136  0.97330  0.59204  Biso   1.000  C
  C24      1.0000 0.97330  0.59204  0.97330  Biso   1.000  C
  C25      1.0000 0.11148  0.38852  0.11148  Biso   1.000  C
  C26      1.0000 0.05372  0.44628  0.05372  Biso   1.000  C
  C27      1.0000 0.38852  0.11148  0.38852  Biso   1.000  C
  C28      1.0000 0.44628  0.05372  0.44628  Biso   1.000  C
  C29      1.0000 0.11148  0.11148  0.38852  Biso   1.000  C
  C30      1.0000 0.05372  0.05372  0.44628  Biso   1.000  C
  C31      1.0000 0.38852  0.38852  0.11148  Biso   1.000  C
  C32      1.0000 0.44628  0.44628  0.05372  Biso   1.000  C
  C33      1.0000 0.11148  0.38852  0.38852  Biso   1.000  C
  C34      1.0000 0.05372  0.44628  0.44628  Biso   1.000  C
  C35      1.0000 0.38852  0.11148  0.11148  Biso   1.000  C
  C36      1.0000 0.44628  0.05372  0.05372  Biso   1.000  C
  C37      1.0000 0.61148  0.88852  0.88852  Biso   1.000  C
  C38      1.0000 0.55372  0.94628  0.94628  Biso   1.000  C
  C39      1.0000 0.88852  0.61148  0.61148  Biso   1.000  C
  C40      1.0000 0.94628  0.55372  0.55372  Biso   1.000  C
  C41      1.0000 0.88852  0.88852  0.61148  Biso   1.000  C
  C42      1.0000 0.94628  0.94628  0.55372  Biso   1.000  C
  C43      1.0000 0.61148  0.61148  0.88852  Biso   1.000  C
  C44      1.0000 0.55372  0.55372  0.94628  Biso   1.000  C
  C45      1.0000 0.61148  0.88852  0.61148  Biso   1.000  C
  C46      1.0000 0.55372  0.94628  0.55372  Biso   1.000  C
  C47      1.0000 0.88852  0.61148  0.88852  Biso   1.000  C
  C48      1.0000 0.94628  0.55372  0.94628  Biso   1.000  C
  O1       1.0000 0.25000  0.25000  0.25000  Biso   1.000  O
  O2       1.0000 0.75000  0.75000  0.75000  Biso   1.000  O
  O3       1.0000 0.13373  0.42751  0.13373  Biso   1.000  O
  O4       1.0000 0.42751  0.13373  0.30503  Biso   1.000  O
  O5       1.0000 0.13373  0.30503  0.13373  Biso   1.000  O
  O6       1.0000 0.30503  0.13373  0.42751  Biso   1.000  O
  O7       1.0000 0.13373  0.13373  0.30503  Biso   1.000  O
  O8       1.0000 0.42751  0.30503  0.13373  Biso   1.000  O
  O9       1.0000 0.13373  0.13373  0.42751  Biso   1.000  O
  O10      1.0000 0.30503  0.42751  0.13373  Biso   1.000  O
  O11      1.0000 0.13373  0.30503  0.42751  Biso   1.000  O
  O12      1.0000 0.42751  0.13373  0.13373  Biso   1.000  O
  O13      1.0000 0.13373  0.42751  0.30503  Biso   1.000  O
  O14      1.0000 0.30503  0.13373  0.13373  Biso   1.000  O
  O15      1.0000 0.57249  0.86627  0.86627  Biso   1.000  O
  O16      1.0000 0.86627  0.57249  0.69497  Biso   1.000  O
  O17      1.0000 0.69497  0.86627  0.86627  Biso   1.000  O
  O18      1.0000 0.86627  0.69497  0.57249  Biso   1.000  O
  O19      1.0000 0.86627  0.86627  0.69497  Biso   1.000  O
  O20      1.0000 0.69497  0.57249  0.86627  Biso   1.000  O
  O21      1.0000 0.86627  0.86627  0.57249  Biso   1.000  O
  O22      1.0000 0.57249  0.69497  0.86627  Biso   1.000  O
  O23      1.0000 0.69497  0.86627  0.57249  Biso   1.000  O
  O24      1.0000 0.86627  0.57249  0.86627  Biso   1.000  O
  O25      1.0000 0.57249  0.86627  0.69497  Biso   1.000  O
  O26      1.0000 0.86627  0.69497  0.86627  Biso   1.000  O
  Zn9      1.0000 0.00000  0.00000  0.00000  Biso   1.000  Zn
  Zn10     1.0000 0.41355  0.58643  0.41358  Biso   1.000  Zn
  Zn11     1.0000 0.41355  0.41237  0.41358  Biso   1.000  Zn
  Zn12     1.0000 1.00000  0.82594  0.00000  Biso   1.000  Zn
  Zn13     1.0000 0.99974  0.00020  0.82580  Biso   1.000  Zn
  Zn14     1.0000 0.82559  0.00007  0.00021  Biso   1.000  Zn
  Zn15     1.0000 0.41381  0.41217  0.58779  Biso   1.000  Zn
  Zn16     1.0000 0.58797  0.41230  0.41337  Biso   1.000  Zn
  H25      1.0000 0.16301  0.64164  0.85884  Biso   1.000  H
  H26      1.0000 0.15601  0.85908  0.64529  Biso   1.000  H
  H27      1.0000 0.86264  0.64362  0.16085  Biso   1.000  H
  H28      1.0000 0.64021  0.86025  0.16614  Biso   1.000  H
  H29      1.0000 0.16472  0.85965  0.15905  Biso   1.000  H
  H30      1.0000 0.25054  0.24992  0.55474  Biso   1.000  H
  H31      1.0000 0.25754  0.24681  0.76829  Biso   1.000  H
  H32      1.0000 0.55092  0.25353  0.25274  Biso   1.000  H
  H33      1.0000 0.77334  0.25303  0.24745  Biso   1.000  H
  H34      1.0000 0.24883  0.76985  0.25454  Biso   1.000  H
  H35      1.0000 0.25054  0.77073  0.55474  Biso   1.000  H
  H36      1.0000 0.25755  0.55329  0.76829  Biso   1.000  H
  H37      1.0000 0.55091  0.76875  0.25274  Biso   1.000  H
  H38      1.0000 0.77334  0.55212  0.24745  Biso   1.000  H
  H39      1.0000 0.24883  0.55272  0.25454  Biso   1.000  H
  H40      1.0000 0.16301  0.16245  0.85884  Biso   1.000  H
  H41      1.0000 0.15601  0.16556  0.64529  Biso   1.000  H
  H42      1.0000 0.86264  0.15884  0.16085  Biso   1.000  H
  H43      1.0000 0.64021  0.15934  0.16614  Biso   1.000  H
  H44      1.0000 0.16472  0.64252  0.15905  Biso   1.000  H
  H45      1.0000 0.64409  0.16115  0.85954  Biso   1.000  H
  H46      1.0000 0.85682  0.16386  0.64140  Biso   1.000  H
  H47      1.0000 0.76946  0.25122  0.55404  Biso   1.000  H
  H48      1.0000 0.55674  0.24851  0.77218  Biso   1.000  H
  C49      1.0000 0.09492  0.81624  0.82021  Biso   1.000  C
  C50      1.0000 0.15342  0.75934  0.75990  Biso   1.000  C
  C51      1.0000 0.18188  0.66810  0.79664  Biso   1.000  C
  C52      1.0000 0.17697  0.79698  0.67085  Biso   1.000  C
  C53      1.0000 0.81800  0.81743  0.09635  Biso   1.000  C
  C54      1.0000 0.76100  0.76182  0.15316  Biso   1.000  C
  C55      1.0000 0.80065  0.66927  0.17832  Biso   1.000  C
  C56      1.0000 0.66776  0.79835  0.18171  Biso   1.000  C
  C57      1.0000 0.18099  0.79765  0.17852  Biso   1.000  C
  C58      1.0000 0.31863  0.31780  0.59338  Biso   1.000  C
  C59      1.0000 0.26013  0.25910  0.65368  Biso   1.000  C
  C60      1.0000 0.23168  0.23304  0.61694  Biso   1.000  C
  C61      1.0000 0.23658  0.23124  0.74273  Biso   1.000  C
  C62      1.0000 0.59555  0.31822  0.31723  Biso   1.000  C
  C63      1.0000 0.65255  0.26241  0.26043  Biso   1.000  C
  C64      1.0000 0.61291  0.23466  0.23527  Biso   1.000  C
  C65      1.0000 0.74579  0.23426  0.23187  Biso   1.000  C
  C66      1.0000 0.23255  0.74360  0.23507  Biso   1.000  C
  C67      1.0000 0.31863  0.59613  0.59338  Biso   1.000  C
  C68      1.0000 0.26014  0.65303  0.65368  Biso   1.000  C
  C69      1.0000 0.23168  0.74427  0.61694  Biso   1.000  C
  C70      1.0000 0.23658  0.61539  0.74273  Biso   1.000  C
  C71      1.0000 0.59555  0.59494  0.31723  Biso   1.000  C
  C72      1.0000 0.65255  0.65055  0.26043  Biso   1.000  C
  C73      1.0000 0.61291  0.74310  0.23527  Biso   1.000  C
  C74      1.0000 0.74579  0.61402  0.23187  Biso   1.000  C
  C75      1.0000 0.23256  0.61472  0.23507  Biso   1.000  C
  C76      1.0000 0.09492  0.09457  0.82021  Biso   1.000  C
  C77      1.0000 0.15342  0.15327  0.75990  Biso   1.000  C
  C78      1.0000 0.18187  0.17933  0.79664  Biso   1.000  C
  C79      1.0000 0.17697  0.18113  0.67085  Biso   1.000  C
  C80      1.0000 0.81801  0.09416  0.09635  Biso   1.000  C
  C81      1.0000 0.76101  0.14996  0.15316  Biso   1.000  C
  C82      1.0000 0.80064  0.17771  0.17832  Biso   1.000  C
  C83      1.0000 0.66777  0.17811  0.18171  Biso   1.000  C
  C84      1.0000 0.18100  0.66877  0.17852  Biso   1.000  C
  C85      1.0000 0.81979  0.09627  0.81362  Biso   1.000  C
  C86      1.0000 0.76069  0.15227  0.76070  Biso   1.000  C
  C87      1.0000 0.67064  0.17883  0.79764  Biso   1.000  C
  C88      1.0000 0.79462  0.18123  0.66885  Biso   1.000  C
  C89      1.0000 0.09413  0.82032  0.09116  Biso   1.000  C
  C90      1.0000 0.15244  0.76022  0.15306  Biso   1.000  C
  C91      1.0000 0.59376  0.31610  0.59997  Biso   1.000  C
  C92      1.0000 0.65287  0.26010  0.65288  Biso   1.000  C
  C93      1.0000 0.74291  0.23354  0.61594  Biso   1.000  C
  C94      1.0000 0.61893  0.23114  0.74473  Biso   1.000  C
  C95      1.0000 0.31942  0.59205  0.32242  Biso   1.000  C
  C96      1.0000 0.26112  0.65215  0.26053  Biso   1.000  C
  O27      1.0000 0.07285  0.90180  0.77678  Biso   1.000  O
  O28      1.0000 0.07526  0.77581  0.90277  Biso   1.000  O
  O29      1.0000 0.77717  0.90288  0.07109  Biso   1.000  O
  O30      1.0000 0.90216  0.77729  0.07389  Biso   1.000  O
  O31      1.0000 0.07317  0.90318  0.07159  Biso   1.000  O
  O32      1.0000 0.34070  0.33786  0.63681  Biso   1.000  O
  O33      1.0000 0.33830  0.34027  0.51081  Biso   1.000  O
  O34      1.0000 0.63638  0.33758  0.34249  Biso   1.000  O
  O35      1.0000 0.51139  0.33978  0.33970  Biso   1.000  O
  O36      1.0000 0.34038  0.63438  0.34199  Biso   1.000  O
  O37      1.0000 0.34070  0.51057  0.63681  Biso   1.000  O
  O38      1.0000 0.33830  0.63656  0.51081  Biso   1.000  O
  O39      1.0000 0.63638  0.50949  0.34249  Biso   1.000  O
  O40      1.0000 0.51139  0.63508  0.33970  Biso   1.000  O
  O41      1.0000 0.34038  0.50919  0.34199  Biso   1.000  O
  O42      1.0000 0.07286  0.07451  0.77678  Biso   1.000  O
  O43      1.0000 0.07526  0.07210  0.90277  Biso   1.000  O
  O44      1.0000 0.77717  0.07479  0.07109  Biso   1.000  O
  O45      1.0000 0.90216  0.07259  0.07389  Biso   1.000  O
  O46      1.0000 0.07317  0.77799  0.07159  Biso   1.000  O
  O47      1.0000 0.95636  0.95670  0.95618  Biso   1.000  O
  O48      1.0000 0.90195  0.07311  0.77778  Biso   1.000  O
  O49      1.0000 0.77846  0.07470  0.89808  Biso   1.000  O
  O50      1.0000 0.45719  0.45567  0.45740  Biso   1.000  O
  O51      1.0000 0.51161  0.33926  0.63581  Biso   1.000  O
