data_image0
_cell_length_a       18.283
_cell_length_b       18.283
_cell_length_c       18.283
_cell_angle_alpha    60
_cell_angle_beta     60
_cell_angle_gamma    60

_symmetry_space_group_name_H-M    "P 1"
_symmetry_int_tables_number       1

loop_
  _symmetry_equiv_pos_as_xyz
  'x, y, z'

loop_
  _atom_site_label
  _atom_site_occupancy
  _atom_site_fract_x
  _atom_site_fract_y
  _atom_site_fract_z
  _atom_site_thermal_displace_type
  _atom_site_B_iso_or_equiv
  _atom_site_type_symbol
  C1       1.0000 0.20657  0.38031  0.20656  Biso   1.000  C
  C2       1.0000 0.38032  0.20656  0.20656  Biso   1.000  C
  C3       1.0000 0.20657  0.20656  0.20656  Biso   1.000  C
  C4       1.0000 0.20657  0.20656  0.38031  Biso   1.000  C
  C5       1.0000 0.61968  0.79344  0.79344  Biso   1.000  C
  C6       1.0000 0.79343  0.61969  0.79344  Biso   1.000  C
  C7       1.0000 0.79343  0.79344  0.79344  Biso   1.000  C
  C8       1.0000 0.79343  0.79344  0.61969  Biso   1.000  C
  C9       1.0000 0.04500  0.56540  0.04500  Biso   1.000  C
  C10      1.0000 0.56540  0.04500  0.34460  Biso   1.000  C
  C11      1.0000 0.04500  0.34460  0.04500  Biso   1.000  C
  C12      1.0000 0.34460  0.04500  0.56540  Biso   1.000  C
  C13      1.0000 0.04500  0.04500  0.34460  Biso   1.000  C
  C14      1.0000 0.56540  0.34460  0.04500  Biso   1.000  C
  C15      1.0000 0.04500  0.04500  0.56540  Biso   1.000  C
  C16      1.0000 0.34460  0.56540  0.04500  Biso   1.000  C
  C17      1.0000 0.04500  0.34460  0.56540  Biso   1.000  C
  C18      1.0000 0.56540  0.04500  0.04500  Biso   1.000  C
  C19      1.0000 0.04500  0.56540  0.34460  Biso   1.000  C
  C20      1.0000 0.34460  0.04500  0.04500  Biso   1.000  C
  C21      1.0000 0.43460  0.95500  0.95500  Biso   1.000  C
  C22      1.0000 0.95500  0.43460  0.65540  Biso   1.000  C
  C23      1.0000 0.65540  0.95500  0.95500  Biso   1.000  C
  C24      1.0000 0.95500  0.65540  0.43460  Biso   1.000  C
  C25      1.0000 0.95500  0.95500  0.65540  Biso   1.000  C
  C26      1.0000 0.65540  0.43460  0.95500  Biso   1.000  C
  C27      1.0000 0.95500  0.95500  0.43460  Biso   1.000  C
  C28      1.0000 0.43460  0.65540  0.95500  Biso   1.000  C
  C29      1.0000 0.65540  0.95500  0.43460  Biso   1.000  C
  C30      1.0000 0.95500  0.43460  0.95500  Biso   1.000  C
  C31      1.0000 0.43460  0.95500  0.65540  Biso   1.000  C
  C32      1.0000 0.95500  0.65540  0.95500  Biso   1.000  C
  C33      1.0000 0.02670  0.53864  0.02670  Biso   1.000  C
  C34      1.0000 0.53864  0.02670  0.40796  Biso   1.000  C
  C35      1.0000 0.02670  0.40796  0.02670  Biso   1.000  C
  C36      1.0000 0.40796  0.02670  0.53864  Biso   1.000  C
  C37      1.0000 0.02670  0.02670  0.40796  Biso   1.000  C
  C38      1.0000 0.53864  0.40796  0.02670  Biso   1.000  C
  C39      1.0000 0.02670  0.02670  0.53864  Biso   1.000  C
  C40      1.0000 0.40796  0.53864  0.02670  Biso   1.000  C
  C41      1.0000 0.02670  0.40796  0.53864  Biso   1.000  C
  C42      1.0000 0.53864  0.02670  0.02670  Biso   1.000  C
  C43      1.0000 0.02670  0.53864  0.40796  Biso   1.000  C
  C44      1.0000 0.40796  0.02670  0.02670  Biso   1.000  C
  C45      1.0000 0.46136  0.97330  0.97330  Biso   1.000  C
  C46      1.0000 0.97330  0.46136  0.59204  Biso   1.000  C
  C47      1.0000 0.59204  0.97330  0.97330  Biso   1.000  C
  C48      1.0000 0.97330  0.59204  0.46136  Biso   1.000  C
  C49      1.0000 0.97330  0.97330  0.59204  Biso   1.000  C
  C50      1.0000 0.59204  0.46136  0.97330  Biso   1.000  C
  C51      1.0000 0.97330  0.97330  0.46136  Biso   1.000  C
  C52      1.0000 0.46136  0.59204  0.97330  Biso   1.000  C
  C53      1.0000 0.59204  0.97330  0.46136  Biso   1.000  C
  C54      1.0000 0.97330  0.46136  0.97330  Biso   1.000  C
  C55      1.0000 0.46136  0.97330  0.59204  Biso   1.000  C
  C56      1.0000 0.97330  0.59204  0.97330  Biso   1.000  C
  C57      1.0000 0.11148  0.38852  0.11148  Biso   1.000  C
  C58      1.0000 0.05372  0.44628  0.05372  Biso   1.000  C
  C59      1.0000 0.38852  0.11148  0.38852  Biso   1.000  C
  C60      1.0000 0.44628  0.05372  0.44628  Biso   1.000  C
  C61      1.0000 0.11148  0.11148  0.38852  Biso   1.000  C
  C62      1.0000 0.05372  0.05372  0.44628  Biso   1.000  C
  C63      1.0000 0.38852  0.38852  0.11148  Biso   1.000  C
  C64      1.0000 0.44628  0.44628  0.05372  Biso   1.000  C
  C65      1.0000 0.11148  0.38852  0.38852  Biso   1.000  C
  C66      1.0000 0.05372  0.44628  0.44628  Biso   1.000  C
  C67      1.0000 0.38852  0.11148  0.11148  Biso   1.000  C
  C68      1.0000 0.44628  0.05372  0.05372  Biso   1.000  C
  C69      1.0000 0.61148  0.88852  0.88852  Biso   1.000  C
  C70      1.0000 0.55372  0.94628  0.94628  Biso   1.000  C
  C71      1.0000 0.88852  0.61148  0.61148  Biso   1.000  C
  C72      1.0000 0.94628  0.55372  0.55372  Biso   1.000  C
  C73      1.0000 0.88852  0.88852  0.61148  Biso   1.000  C
  C74      1.0000 0.94628  0.94628  0.55372  Biso   1.000  C
  C75      1.0000 0.61148  0.61148  0.88852  Biso   1.000  C
  C76      1.0000 0.55372  0.55372  0.94628  Biso   1.000  C
  C77      1.0000 0.61148  0.88852  0.61148  Biso   1.000  C
  C78      1.0000 0.55372  0.94628  0.55372  Biso   1.000  C
  C79      1.0000 0.88852  0.61148  0.88852  Biso   1.000  C
  C80      1.0000 0.94628  0.55372  0.94628  Biso   1.000  C
  C81      1.0000 0.25000  0.25000  0.25000  Biso   1.000  C
  C82      1.0000 0.75000  0.75000  0.75000  Biso   1.000  C
  C83      1.0000 0.13373  0.42751  0.13373  Biso   1.000  C
  C84      1.0000 0.42751  0.13373  0.30503  Biso   1.000  C
  C85      1.0000 0.13373  0.30503  0.13373  Biso   1.000  C
  C86      1.0000 0.30503  0.13373  0.42751  Biso   1.000  C
  C87      1.0000 0.13373  0.13373  0.30503  Biso   1.000  C
  C88      1.0000 0.42751  0.30503  0.13373  Biso   1.000  C
  C89      1.0000 0.13373  0.13373  0.42751  Biso   1.000  C
  C90      1.0000 0.30503  0.42751  0.13373  Biso   1.000  C
  C91      1.0000 0.13373  0.30503  0.42751  Biso   1.000  C
  C92      1.0000 0.42751  0.13373  0.13373  Biso   1.000  C
  C93      1.0000 0.13373  0.42751  0.30503  Biso   1.000  C
  C94      1.0000 0.30503  0.13373  0.13373  Biso   1.000  C
  C95      1.0000 0.57249  0.86627  0.86627  Biso   1.000  C
  C96      1.0000 0.86627  0.57249  0.69497  Biso   1.000  C
  C97      1.0000 0.69497  0.86627  0.86627  Biso   1.000  C
  C98      1.0000 0.86627  0.69497  0.57249  Biso   1.000  C
  C99      1.0000 0.86627  0.86627  0.69497  Biso   1.000  C
  C100     1.0000 0.69497  0.57249  0.86627  Biso   1.000  C
  C101     1.0000 0.86627  0.86627  0.57249  Biso   1.000  C
  C102     1.0000 0.57249  0.69497  0.86627  Biso   1.000  C
  C103     1.0000 0.69497  0.86627  0.57249  Biso   1.000  C
  C104     1.0000 0.86627  0.57249  0.86627  Biso   1.000  C
  C105     1.0000 0.57249  0.86627  0.69497  Biso   1.000  C
  C106     1.0000 0.86627  0.69497  0.86627  Biso   1.000  C
  O1       1.0000 0.85359  0.01850  0.13398  Biso   1.000  O
  O2       1.0000 0.43522  0.60013  0.54229  Biso   1.000  O
  O3       1.0000 0.60867  0.42667  0.54229  Biso   1.000  O
  O4       1.0000 0.02704  0.84504  0.13398  Biso   1.000  O
  O5       1.0000 0.02712  0.01858  0.96032  Biso   1.000  O
  O6       1.0000 0.02687  0.01832  0.13411  Biso   1.000  O
  O7       1.0000 0.43514  0.42659  0.71595  Biso   1.000  O
  O8       1.0000 0.43539  0.42685  0.54216  Biso   1.000  O
  O9       1.0000 0.88934  0.17504  0.76744  Biso   1.000  O
  O10      1.0000 0.65964  0.17350  0.99774  Biso   1.000  O
  O11      1.0000 0.65765  0.88221  0.28813  Biso   1.000  O
  O12      1.0000 0.27868  0.56437  0.90883  Biso   1.000  O
  O13      1.0000 0.28022  0.79408  0.67853  Biso   1.000  O
  O14      1.0000 0.57151  0.79607  0.38813  Biso   1.000  O
  O15      1.0000 0.57292  0.27013  0.90883  Biso   1.000  O
  O16      1.0000 0.80262  0.27167  0.67853  Biso   1.000  O
  O17      1.0000 0.80462  0.56296  0.38813  Biso   1.000  O
  O18      1.0000 0.18359  0.88080  0.76744  Biso   1.000  O
  O19      1.0000 0.18204  0.65110  0.99774  Biso   1.000  O
  O20      1.0000 0.89075  0.64910  0.28813  Biso   1.000  O
  O21      1.0000 0.85652  0.10657  0.95586  Biso   1.000  O
  O22      1.0000 0.78732  0.17103  0.89665  Biso   1.000  O
  O23      1.0000 0.82598  0.19642  0.79378  Biso   1.000  O
  O24      1.0000 0.68667  0.19498  0.93457  Biso   1.000  O
  O25      1.0000 0.85294  0.10596  0.22130  Biso   1.000  O
  O26      1.0000 0.68368  0.81914  0.31180  Biso   1.000  O
  O27      1.0000 0.34714  0.59720  0.72041  Biso   1.000  O
  O28      1.0000 0.28269  0.66640  0.77962  Biso   1.000  O
  O29      1.0000 0.25729  0.62774  0.88249  Biso   1.000  O
  O30      1.0000 0.25873  0.76704  0.74170  Biso   1.000  O
  O31      1.0000 0.34775  0.60078  0.45497  Biso   1.000  O
  O32      1.0000 0.63457  0.77003  0.36447  Biso   1.000  O
  O33      1.0000 0.60574  0.33860  0.72041  Biso   1.000  O
  O34      1.0000 0.67494  0.27414  0.77962  Biso   1.000  O
  O35      1.0000 0.63628  0.24875  0.88249  Biso   1.000  O
  O36      1.0000 0.77559  0.25019  0.74170  Biso   1.000  O
  O37      1.0000 0.60932  0.33921  0.45497  Biso   1.000  O
  O38      1.0000 0.77858  0.62603  0.36447  Biso   1.000  O
  O39      1.0000 0.11512  0.84797  0.95586  Biso   1.000  O
  O40      1.0000 0.17957  0.77877  0.89665  Biso   1.000  O
  O41      1.0000 0.20497  0.81743  0.79378  Biso   1.000  O
  O42      1.0000 0.20353  0.67813  0.93457  Biso   1.000  O
  O43      1.0000 0.11451  0.84439  0.22130  Biso   1.000  O
  O44      1.0000 0.82769  0.67514  0.31180  Biso   1.000  O
  O45      1.0000 0.11542  0.10687  0.95596  Biso   1.000  O
  O46      1.0000 0.85185  0.84330  0.22041  Biso   1.000  O
  O47      1.0000 0.78710  0.77855  0.28912  Biso   1.000  O
  O48      1.0000 0.34685  0.33830  0.72031  Biso   1.000  O
  O49      1.0000 0.61041  0.60187  0.45586  Biso   1.000  O
  O50      1.0000 0.67516  0.66662  0.38714  Biso   1.000  O
  O51      1.0000 0.93394  0.09034  0.91210  Biso   1.000  O
  O52      1.0000 0.80483  0.09112  0.03843  Biso   1.000  O
  O53      1.0000 0.93373  0.09052  0.20507  Biso   1.000  O
  O54      1.0000 0.80344  0.09072  0.20516  Biso   1.000  O
  O55      1.0000 0.80374  0.92469  0.20675  Biso   1.000  O
  O56      1.0000 0.36338  0.51977  0.76417  Biso   1.000  O
  O57      1.0000 0.36259  0.64888  0.63784  Biso   1.000  O
  O58      1.0000 0.36319  0.51999  0.47120  Biso   1.000  O
  O59      1.0000 0.36300  0.65028  0.47111  Biso   1.000  O
  O60      1.0000 0.52903  0.64998  0.46952  Biso   1.000  O
  O61      1.0000 0.52832  0.35483  0.76417  Biso   1.000  O
  O62      1.0000 0.65743  0.35405  0.63784  Biso   1.000  O
  O63      1.0000 0.52853  0.35465  0.47120  Biso   1.000  O
  O64      1.0000 0.65882  0.35445  0.47111  Biso   1.000  O
  O65      1.0000 0.65853  0.52048  0.46952  Biso   1.000  O
  O66      1.0000 0.09888  0.92540  0.91210  Biso   1.000  O
  O67      1.0000 0.09967  0.79629  0.03843  Biso   1.000  O
  O68      1.0000 0.09907  0.92518  0.20507  Biso   1.000  O
  O69      1.0000 0.09926  0.79489  0.20516  Biso   1.000  O
  O70      1.0000 0.93323  0.79519  0.20675  Biso   1.000  O
  O71      1.0000 0.98235  0.97380  0.09180  Biso   1.000  O
  O72      1.0000 0.09879  0.09024  0.91061  Biso   1.000  O
  O73      1.0000 0.09868  0.09013  0.04021  Biso   1.000  O
  O74      1.0000 0.47991  0.47137  0.58447  Biso   1.000  O
  O75      1.0000 0.36348  0.35493  0.76566  Biso   1.000  O
