data_image0
_cell_length_a       18.3127
_cell_length_b       18.3127
_cell_length_c       18.3127
_cell_angle_alpha    60
_cell_angle_beta     60
_cell_angle_gamma    60

_symmetry_space_group_name_H-M    "P 1"
_symmetry_int_tables_number       1

loop_
  _symmetry_equiv_pos_as_xyz
  'x, y, z'

loop_
  _atom_site_label
  _atom_site_occupancy
  _atom_site_fract_x
  _atom_site_fract_y
  _atom_site_fract_z
  _atom_site_thermal_displace_type
  _atom_site_B_iso_or_equiv
  _atom_site_type_symbol
  Zn1      1.0000 0.20666  0.38001  0.20666  Biso   1.000  Zn
  Zn2      1.0000 0.38001  0.20666  0.20666  Biso   1.000  Zn
  Zn3      1.0000 0.20667  0.20666  0.20666  Biso   1.000  Zn
  Zn4      1.0000 0.20667  0.20666  0.38001  Biso   1.000  Zn
  Zn5      1.0000 0.61999  0.79334  0.79334  Biso   1.000  Zn
  Zn6      1.0000 0.79334  0.61999  0.79333  Biso   1.000  Zn
  Zn7      1.0000 0.79334  0.79333  0.79334  Biso   1.000  Zn
  Zn8      1.0000 0.79334  0.79333  0.61999  Biso   1.000  Zn
  H1       1.0000 0.04520  0.56580  0.04520  Biso   1.000  H
  H2       1.0000 0.56580  0.04520  0.34380  Biso   1.000  H
  H3       1.0000 0.04520  0.34380  0.04520  Biso   1.000  H
  H4       1.0000 0.34380  0.04520  0.56580  Biso   1.000  H
  H5       1.0000 0.04520  0.04520  0.34380  Biso   1.000  H
  H6       1.0000 0.56580  0.34380  0.04520  Biso   1.000  H
  H7       1.0000 0.04520  0.04520  0.56580  Biso   1.000  H
  H8       1.0000 0.34380  0.56580  0.04520  Biso   1.000  H
  H9       1.0000 0.04520  0.34380  0.56580  Biso   1.000  H
  H10      1.0000 0.56580  0.04520  0.04520  Biso   1.000  H
  H11      1.0000 0.04520  0.56580  0.34380  Biso   1.000  H
  H12      1.0000 0.34380  0.04520  0.04520  Biso   1.000  H
  H13      1.0000 0.43420  0.95480  0.95480  Biso   1.000  H
  H14      1.0000 0.95480  0.43420  0.65620  Biso   1.000  H
  H15      1.0000 0.65620  0.95480  0.95480  Biso   1.000  H
  H16      1.0000 0.95480  0.65620  0.43420  Biso   1.000  H
  H17      1.0000 0.95480  0.95480  0.65620  Biso   1.000  H
  H18      1.0000 0.65620  0.43420  0.95480  Biso   1.000  H
  H19      1.0000 0.95480  0.95480  0.43420  Biso   1.000  H
  H20      1.0000 0.43420  0.65620  0.95480  Biso   1.000  H
  H21      1.0000 0.65620  0.95480  0.43420  Biso   1.000  H
  H22      1.0000 0.95480  0.43420  0.95480  Biso   1.000  H
  H23      1.0000 0.43420  0.95480  0.65620  Biso   1.000  H
  H24      1.0000 0.95480  0.65620  0.95480  Biso   1.000  H
  C1       1.0000 0.02688  0.53930  0.02688  Biso   1.000  C
  C2       1.0000 0.53930  0.02688  0.40694  Biso   1.000  C
  C3       1.0000 0.02688  0.40694  0.02688  Biso   1.000  C
  C4       1.0000 0.40694  0.02688  0.53930  Biso   1.000  C
  C5       1.0000 0.02688  0.02688  0.40694  Biso   1.000  C
  C6       1.0000 0.53930  0.40694  0.02688  Biso   1.000  C
  C7       1.0000 0.02688  0.02688  0.53930  Biso   1.000  C
  C8       1.0000 0.40694  0.53930  0.02688  Biso   1.000  C
  C9       1.0000 0.02688  0.40694  0.53930  Biso   1.000  C
  C10      1.0000 0.53930  0.02688  0.02688  Biso   1.000  C
  C11      1.0000 0.02688  0.53930  0.40694  Biso   1.000  C
  C12      1.0000 0.40694  0.02688  0.02688  Biso   1.000  C
  C13      1.0000 0.46070  0.97312  0.97312  Biso   1.000  C
  C14      1.0000 0.97312  0.46070  0.59306  Biso   1.000  C
  C15      1.0000 0.59306  0.97312  0.97312  Biso   1.000  C
  C16      1.0000 0.97312  0.59306  0.46070  Biso   1.000  C
  C17      1.0000 0.97312  0.97312  0.59306  Biso   1.000  C
  C18      1.0000 0.59306  0.46070  0.97312  Biso   1.000  C
  C19      1.0000 0.97312  0.97312  0.46070  Biso   1.000  C
  C20      1.0000 0.46070  0.59306  0.97312  Biso   1.000  C
  C21      1.0000 0.59306  0.97312  0.46070  Biso   1.000  C
  C22      1.0000 0.97312  0.46070  0.97312  Biso   1.000  C
  C23      1.0000 0.46070  0.97312  0.59306  Biso   1.000  C
  C24      1.0000 0.97312  0.59306  0.97312  Biso   1.000  C
  C25      1.0000 0.11142  0.38858  0.11142  Biso   1.000  C
  C26      1.0000 0.05381  0.44619  0.05381  Biso   1.000  C
  C27      1.0000 0.38858  0.11142  0.38858  Biso   1.000  C
  C28      1.0000 0.44619  0.05381  0.44619  Biso   1.000  C
  C29      1.0000 0.11142  0.11142  0.38858  Biso   1.000  C
  C30      1.0000 0.05381  0.05381  0.44619  Biso   1.000  C
  C31      1.0000 0.38858  0.38858  0.11142  Biso   1.000  C
  C32      1.0000 0.44619  0.44619  0.05381  Biso   1.000  C
  C33      1.0000 0.11142  0.38858  0.38858  Biso   1.000  C
  C34      1.0000 0.05381  0.44619  0.44619  Biso   1.000  C
  C35      1.0000 0.38858  0.11142  0.11142  Biso   1.000  C
  C36      1.0000 0.44619  0.05381  0.05381  Biso   1.000  C
  C37      1.0000 0.61142  0.88858  0.88858  Biso   1.000  C
  C38      1.0000 0.55381  0.94619  0.94619  Biso   1.000  C
  C39      1.0000 0.88858  0.61142  0.61142  Biso   1.000  C
  C40      1.0000 0.94619  0.55381  0.55381  Biso   1.000  C
  C41      1.0000 0.88858  0.88858  0.61142  Biso   1.000  C
  C42      1.0000 0.94619  0.94619  0.55381  Biso   1.000  C
  C43      1.0000 0.61142  0.61142  0.88858  Biso   1.000  C
  C44      1.0000 0.55381  0.55381  0.94619  Biso   1.000  C
  C45      1.0000 0.61142  0.88858  0.61142  Biso   1.000  C
  C46      1.0000 0.55381  0.94619  0.55381  Biso   1.000  C
  C47      1.0000 0.88858  0.61142  0.88858  Biso   1.000  C
  C48      1.0000 0.94619  0.55381  0.94619  Biso   1.000  C
  O1       1.0000 0.25000  0.25000  0.25000  Biso   1.000  O
  O2       1.0000 0.75000  0.75000  0.75000  Biso   1.000  O
  O3       1.0000 0.13369  0.42773  0.13369  Biso   1.000  O
  O4       1.0000 0.42773  0.13369  0.30489  Biso   1.000  O
  O5       1.0000 0.13369  0.30489  0.13369  Biso   1.000  O
  O6       1.0000 0.30489  0.13369  0.42773  Biso   1.000  O
  O7       1.0000 0.13369  0.13369  0.30489  Biso   1.000  O
  O8       1.0000 0.42773  0.30489  0.13369  Biso   1.000  O
  O9       1.0000 0.13369  0.13369  0.42773  Biso   1.000  O
  O10      1.0000 0.30489  0.42773  0.13369  Biso   1.000  O
  O11      1.0000 0.13369  0.30489  0.42773  Biso   1.000  O
  O12      1.0000 0.42773  0.13369  0.13369  Biso   1.000  O
  O13      1.0000 0.13369  0.42773  0.30489  Biso   1.000  O
  O14      1.0000 0.30489  0.13369  0.13369  Biso   1.000  O
  O15      1.0000 0.57227  0.86631  0.86631  Biso   1.000  O
  O16      1.0000 0.86631  0.57227  0.69511  Biso   1.000  O
  O17      1.0000 0.69511  0.86631  0.86631  Biso   1.000  O
  O18      1.0000 0.86631  0.69511  0.57227  Biso   1.000  O
  O19      1.0000 0.86631  0.86631  0.69511  Biso   1.000  O
  O20      1.0000 0.69511  0.57227  0.86631  Biso   1.000  O
  O21      1.0000 0.86631  0.86631  0.57227  Biso   1.000  O
  O22      1.0000 0.57227  0.69511  0.86631  Biso   1.000  O
  O23      1.0000 0.69511  0.86631  0.57227  Biso   1.000  O
  O24      1.0000 0.86631  0.57227  0.86631  Biso   1.000  O
  O25      1.0000 0.57227  0.86631  0.69511  Biso   1.000  O
  O26      1.0000 0.86631  0.69511  0.86631  Biso   1.000  O
  Zn9      1.0000 0.99088  0.97128  0.86943  Biso   1.000  Zn
  Zn10     1.0000 0.99093  0.14303  0.86938  Biso   1.000  Zn
  Zn11     1.0000 0.16268  0.97128  0.86943  Biso   1.000  Zn
  Zn12     1.0000 0.99093  0.97123  0.04118  Biso   1.000  Zn
  Zn13     1.0000 0.57240  0.56157  0.45973  Biso   1.000  Zn
  Zn14     1.0000 0.57235  0.38982  0.45978  Biso   1.000  Zn
  Zn15     1.0000 0.40060  0.56157  0.45973  Biso   1.000  Zn
  Zn16     1.0000 0.57235  0.56162  0.28798  Biso   1.000  Zn
  C49      1.0000 0.81205  0.17040  0.69155  Biso   1.000  C
  C50      1.0000 0.19026  0.79319  0.68956  Biso   1.000  C
  C51      1.0000 0.81146  0.79418  0.06856  Biso   1.000  C
  C52      1.0000 0.81306  0.30951  0.69056  Biso   1.000  C
  C53      1.0000 0.81107  0.31051  0.06876  Biso   1.000  C
  C54      1.0000 0.19007  0.30932  0.68995  Biso   1.000  C
  C55      1.0000 0.32028  0.79340  0.06855  Biso   1.000  C
  C56      1.0000 0.32128  0.79140  0.69134  Biso   1.000  C
  C57      1.0000 0.32009  0.17041  0.69233  Biso   1.000  C
  C58      1.0000 0.18116  0.79240  0.20767  Biso   1.000  C
  C59      1.0000 0.80395  0.17060  0.20867  Biso   1.000  C
  C60      1.0000 0.80495  0.79179  0.20748  Biso   1.000  C
  C61      1.0000 0.75123  0.36245  0.63761  Biso   1.000  C
  C62      1.0000 0.37302  0.73966  0.63961  Biso   1.000  C
  C63      1.0000 0.75183  0.73867  0.26061  Biso   1.000  C
  C64      1.0000 0.75022  0.22334  0.63861  Biso   1.000  C
  C65      1.0000 0.75221  0.22234  0.26041  Biso   1.000  C
  C66      1.0000 0.37321  0.22353  0.63921  Biso   1.000  C
  C67      1.0000 0.24300  0.73945  0.26062  Biso   1.000  C
  C68      1.0000 0.24200  0.74145  0.63782  Biso   1.000  C
  C69      1.0000 0.24319  0.36244  0.63683  Biso   1.000  C
  C70      1.0000 0.38212  0.74045  0.12149  Biso   1.000  C
  C71      1.0000 0.75933  0.36225  0.12049  Biso   1.000  C
  C72      1.0000 0.75833  0.74106  0.12168  Biso   1.000  C
  C73      1.0000 0.83940  0.20866  0.71790  Biso   1.000  C
  C74      1.0000 0.89756  0.15050  0.77606  Biso   1.000  C
  C75      1.0000 0.22832  0.81975  0.10681  Biso   1.000  C
  C76      1.0000 0.17016  0.87791  0.04866  Biso   1.000  C
  C77      1.0000 0.72388  0.32419  0.61126  Biso   1.000  C
  C78      1.0000 0.66572  0.38235  0.55310  Biso   1.000  C
  C79      1.0000 0.33497  0.71310  0.22235  Biso   1.000  C
  C80      1.0000 0.39312  0.65494  0.28051  Biso   1.000  C
  C81      1.0000 0.83921  0.81955  0.10701  Biso   1.000  C
  C82      1.0000 0.89709  0.87743  0.04913  Biso   1.000  C
  C83      1.0000 0.22851  0.20886  0.71771  Biso   1.000  C
  C84      1.0000 0.17063  0.15098  0.77559  Biso   1.000  C
  C85      1.0000 0.72407  0.71330  0.22215  Biso   1.000  C
  C86      1.0000 0.66620  0.65542  0.28003  Biso   1.000  C
  C87      1.0000 0.33477  0.32399  0.61146  Biso   1.000  C
  C88      1.0000 0.39265  0.38187  0.55358  Biso   1.000  C
  C89      1.0000 0.22871  0.81935  0.71751  Biso   1.000  C
  C90      1.0000 0.17083  0.87723  0.77539  Biso   1.000  C
  C91      1.0000 0.83900  0.20906  0.10721  Biso   1.000  C
  C92      1.0000 0.89688  0.15118  0.04933  Biso   1.000  C
  C93      1.0000 0.33457  0.71350  0.61166  Biso   1.000  C
  C94      1.0000 0.39245  0.65562  0.55378  Biso   1.000  C
  C95      1.0000 0.72428  0.32379  0.22195  Biso   1.000  C
  C96      1.0000 0.66640  0.38167  0.27983  Biso   1.000  C
  O27      1.0000 0.91996  0.06701  0.79687  Biso   1.000  O
  O28      1.0000 0.91804  0.90031  0.96600  Biso   1.000  O
  O29      1.0000 0.08625  0.89995  0.79729  Biso   1.000  O
  O30      1.0000 0.91837  0.19078  0.79846  Biso   1.000  O
  O31      1.0000 0.08749  0.19029  0.79654  Biso   1.000  O
  O32      1.0000 0.91879  0.19114  0.96475  Biso   1.000  O
  O33      1.0000 0.21044  0.89872  0.96517  Biso   1.000  O
  O34      1.0000 0.20994  0.06785  0.79846  Biso   1.000  O
  O35      1.0000 0.21079  0.89914  0.79810  Biso   1.000  O
  O36      1.0000 0.08667  0.90031  0.08893  Biso   1.000  O
  O37      1.0000 0.91996  0.89839  0.08844  Biso   1.000  O
  O38      1.0000 0.91960  0.06660  0.08929  Biso   1.000  O
  O39      1.0000 0.64332  0.46584  0.53229  Biso   1.000  O
  O40      1.0000 0.64524  0.63254  0.36317  Biso   1.000  O
  O41      1.0000 0.47703  0.63290  0.53187  Biso   1.000  O
  O42      1.0000 0.64491  0.34207  0.53070  Biso   1.000  O
  O43      1.0000 0.47579  0.34256  0.53263  Biso   1.000  O
  O44      1.0000 0.64450  0.34171  0.36442  Biso   1.000  O
  O45      1.0000 0.35285  0.63413  0.36400  Biso   1.000  O
  O46      1.0000 0.35334  0.46500  0.53070  Biso   1.000  O
  O47      1.0000 0.35249  0.63371  0.53106  Biso   1.000  O
  O48      1.0000 0.47662  0.63254  0.24023  Biso   1.000  O
  O49      1.0000 0.64332  0.63446  0.24073  Biso   1.000  O
  O50      1.0000 0.64368  0.46625  0.23987  Biso   1.000  O
  O51      1.0000 0.03386  0.01421  0.91236  Biso   1.000  O
  O52      1.0000 0.52942  0.51864  0.41681  Biso   1.000  O
  H25      1.0000 0.11434  0.81593  0.71084  Biso   1.000  H
  H26      1.0000 0.35318  0.81268  0.71409  Biso   1.000  H
  H27      1.0000 0.44894  0.71692  0.61833  Biso   1.000  H
  H28      1.0000 0.21010  0.72017  0.61508  Biso   1.000  H
  H29      1.0000 0.35198  0.09450  0.71533  Biso   1.000  H
  H30      1.0000 0.44912  0.19163  0.61819  Biso   1.000  H
  H31      1.0000 0.83248  0.81717  0.99265  Biso   1.000  H
  H32      1.0000 0.73534  0.72003  0.08979  Biso   1.000  H
  H33      1.0000 0.83548  0.34141  0.71216  Biso   1.000  H
  H34      1.0000 0.83235  0.34241  0.99284  Biso   1.000  H
  H35      1.0000 0.45804  0.71885  0.08959  Biso   1.000  H
  H36      1.0000 0.73659  0.43817  0.08860  Biso   1.000  H
  H37      1.0000 0.11416  0.34122  0.71098  Biso   1.000  H
  H38      1.0000 0.21130  0.43835  0.61384  Biso   1.000  H
  H39      1.0000 0.82794  0.81282  0.23938  Biso   1.000  H
  H40      1.0000 0.73080  0.71568  0.33652  Biso   1.000  H
  H41      1.0000 0.21110  0.71703  0.33654  Biso   1.000  H
  H42      1.0000 0.82670  0.09468  0.24057  Biso   1.000  H
  H43      1.0000 0.73093  0.19044  0.33633  Biso   1.000  H
  H44      1.0000 0.10524  0.81400  0.23958  Biso   1.000  H
  H45      1.0000 0.72780  0.19144  0.61701  Biso   1.000  H
  H46      1.0000 0.83365  0.09448  0.71397  Biso   1.000  H
  H47      1.0000 0.72963  0.43837  0.61520  Biso   1.000  H
