data_image0
_cell_length_a       18.3063
_cell_length_b       18.3063
_cell_length_c       18.3063
_cell_angle_alpha    60
_cell_angle_beta     60
_cell_angle_gamma    60

_symmetry_space_group_name_H-M    "P 1"
_symmetry_int_tables_number       1

loop_
  _symmetry_equiv_pos_as_xyz
  'x, y, z'

loop_
  _atom_site_label
  _atom_site_occupancy
  _atom_site_fract_x
  _atom_site_fract_y
  _atom_site_fract_z
  _atom_site_thermal_displace_type
  _atom_site_B_iso_or_equiv
  _atom_site_type_symbol
  Zn1      1.0000 0.20664  0.38006  0.20665  Biso   1.000  Zn
  Zn2      1.0000 0.38005  0.20665  0.20665  Biso   1.000  Zn
  Zn3      1.0000 0.20664  0.20665  0.20665  Biso   1.000  Zn
  Zn4      1.0000 0.20664  0.20665  0.38006  Biso   1.000  Zn
  Zn5      1.0000 0.61995  0.79335  0.79335  Biso   1.000  Zn
  Zn6      1.0000 0.79336  0.61994  0.79335  Biso   1.000  Zn
  Zn7      1.0000 0.79336  0.79335  0.79335  Biso   1.000  Zn
  Zn8      1.0000 0.79336  0.79335  0.61994  Biso   1.000  Zn
  H1       1.0000 0.04520  0.56560  0.04520  Biso   1.000  H
  H2       1.0000 0.56560  0.04520  0.34400  Biso   1.000  H
  H3       1.0000 0.04520  0.34400  0.04520  Biso   1.000  H
  H4       1.0000 0.34400  0.04520  0.56560  Biso   1.000  H
  H5       1.0000 0.04520  0.04520  0.34400  Biso   1.000  H
  H6       1.0000 0.56560  0.34400  0.04520  Biso   1.000  H
  H7       1.0000 0.04520  0.04520  0.56560  Biso   1.000  H
  H8       1.0000 0.34400  0.56560  0.04520  Biso   1.000  H
  H9       1.0000 0.04520  0.34400  0.56560  Biso   1.000  H
  H10      1.0000 0.56560  0.04520  0.04520  Biso   1.000  H
  H11      1.0000 0.04520  0.56560  0.34400  Biso   1.000  H
  H12      1.0000 0.34400  0.04520  0.04520  Biso   1.000  H
  H13      1.0000 0.43440  0.95480  0.95480  Biso   1.000  H
  H14      1.0000 0.95480  0.43440  0.65600  Biso   1.000  H
  H15      1.0000 0.65600  0.95480  0.95480  Biso   1.000  H
  H16      1.0000 0.95480  0.65600  0.43440  Biso   1.000  H
  H17      1.0000 0.95480  0.95480  0.65600  Biso   1.000  H
  H18      1.0000 0.65600  0.43440  0.95480  Biso   1.000  H
  H19      1.0000 0.95480  0.95480  0.43440  Biso   1.000  H
  H20      1.0000 0.43440  0.65600  0.95480  Biso   1.000  H
  H21      1.0000 0.65600  0.95480  0.43440  Biso   1.000  H
  H22      1.0000 0.95480  0.43440  0.95480  Biso   1.000  H
  H23      1.0000 0.43440  0.95480  0.65600  Biso   1.000  H
  H24      1.0000 0.95480  0.65600  0.95480  Biso   1.000  H
  C1       1.0000 0.02683  0.53905  0.02683  Biso   1.000  C
  C2       1.0000 0.53905  0.02683  0.40729  Biso   1.000  C
  C3       1.0000 0.02683  0.40729  0.02683  Biso   1.000  C
  C4       1.0000 0.40729  0.02683  0.53905  Biso   1.000  C
  C5       1.0000 0.02683  0.02683  0.40729  Biso   1.000  C
  C6       1.0000 0.53905  0.40729  0.02683  Biso   1.000  C
  C7       1.0000 0.02683  0.02683  0.53905  Biso   1.000  C
  C8       1.0000 0.40729  0.53905  0.02683  Biso   1.000  C
  C9       1.0000 0.02683  0.40729  0.53905  Biso   1.000  C
  C10      1.0000 0.53905  0.02683  0.02683  Biso   1.000  C
  C11      1.0000 0.02683  0.53905  0.40729  Biso   1.000  C
  C12      1.0000 0.40729  0.02683  0.02683  Biso   1.000  C
  C13      1.0000 0.46095  0.97317  0.97317  Biso   1.000  C
  C14      1.0000 0.97317  0.46095  0.59271  Biso   1.000  C
  C15      1.0000 0.59271  0.97317  0.97317  Biso   1.000  C
  C16      1.0000 0.97317  0.59271  0.46095  Biso   1.000  C
  C17      1.0000 0.97317  0.97317  0.59271  Biso   1.000  C
  C18      1.0000 0.59271  0.46095  0.97317  Biso   1.000  C
  C19      1.0000 0.97317  0.97317  0.46095  Biso   1.000  C
  C20      1.0000 0.46095  0.59271  0.97317  Biso   1.000  C
  C21      1.0000 0.59271  0.97317  0.46095  Biso   1.000  C
  C22      1.0000 0.97317  0.46095  0.97317  Biso   1.000  C
  C23      1.0000 0.46095  0.97317  0.59271  Biso   1.000  C
  C24      1.0000 0.97317  0.59271  0.97317  Biso   1.000  C
  C25      1.0000 0.11144  0.38856  0.11144  Biso   1.000  C
  C26      1.0000 0.05381  0.44619  0.05381  Biso   1.000  C
  C27      1.0000 0.38856  0.11144  0.38856  Biso   1.000  C
  C28      1.0000 0.44619  0.05381  0.44619  Biso   1.000  C
  C29      1.0000 0.11144  0.11144  0.38856  Biso   1.000  C
  C30      1.0000 0.05381  0.05381  0.44619  Biso   1.000  C
  C31      1.0000 0.38856  0.38856  0.11144  Biso   1.000  C
  C32      1.0000 0.44619  0.44619  0.05381  Biso   1.000  C
  C33      1.0000 0.11144  0.38856  0.38856  Biso   1.000  C
  C34      1.0000 0.05381  0.44619  0.44619  Biso   1.000  C
  C35      1.0000 0.38856  0.11144  0.11144  Biso   1.000  C
  C36      1.0000 0.44619  0.05381  0.05381  Biso   1.000  C
  C37      1.0000 0.61144  0.88856  0.88856  Biso   1.000  C
  C38      1.0000 0.55381  0.94619  0.94619  Biso   1.000  C
  C39      1.0000 0.88856  0.61144  0.61144  Biso   1.000  C
  C40      1.0000 0.94619  0.55381  0.55381  Biso   1.000  C
  C41      1.0000 0.88856  0.88856  0.61144  Biso   1.000  C
  C42      1.0000 0.94619  0.94619  0.55381  Biso   1.000  C
  C43      1.0000 0.61144  0.61144  0.88856  Biso   1.000  C
  C44      1.0000 0.55381  0.55381  0.94619  Biso   1.000  C
  C45      1.0000 0.61144  0.88856  0.61144  Biso   1.000  C
  C46      1.0000 0.55381  0.94619  0.55381  Biso   1.000  C
  C47      1.0000 0.88856  0.61144  0.88856  Biso   1.000  C
  C48      1.0000 0.94619  0.55381  0.94619  Biso   1.000  C
  O1       1.0000 0.25000  0.25000  0.25000  Biso   1.000  O
  O2       1.0000 0.75000  0.75000  0.75000  Biso   1.000  O
  O3       1.0000 0.13368  0.42768  0.13368  Biso   1.000  O
  O4       1.0000 0.42768  0.13368  0.30496  Biso   1.000  O
  O5       1.0000 0.13368  0.30496  0.13368  Biso   1.000  O
  O6       1.0000 0.30496  0.13368  0.42768  Biso   1.000  O
  O7       1.0000 0.13368  0.13368  0.30496  Biso   1.000  O
  O8       1.0000 0.42768  0.30496  0.13368  Biso   1.000  O
  O9       1.0000 0.13368  0.13368  0.42768  Biso   1.000  O
  O10      1.0000 0.30496  0.42768  0.13368  Biso   1.000  O
  O11      1.0000 0.13368  0.30496  0.42768  Biso   1.000  O
  O12      1.0000 0.42768  0.13368  0.13368  Biso   1.000  O
  O13      1.0000 0.13368  0.42768  0.30496  Biso   1.000  O
  O14      1.0000 0.30496  0.13368  0.13368  Biso   1.000  O
  O15      1.0000 0.57232  0.86632  0.86632  Biso   1.000  O
  O16      1.0000 0.86632  0.57232  0.69504  Biso   1.000  O
  O17      1.0000 0.69504  0.86632  0.86632  Biso   1.000  O
  O18      1.0000 0.86632  0.69504  0.57232  Biso   1.000  O
  O19      1.0000 0.86632  0.86632  0.69504  Biso   1.000  O
  O20      1.0000 0.69504  0.57232  0.86632  Biso   1.000  O
  O21      1.0000 0.86632  0.86632  0.57232  Biso   1.000  O
  O22      1.0000 0.57232  0.69504  0.86632  Biso   1.000  O
  O23      1.0000 0.69504  0.86632  0.57232  Biso   1.000  O
  O24      1.0000 0.86632  0.57232  0.86632  Biso   1.000  O
  O25      1.0000 0.57232  0.86632  0.69504  Biso   1.000  O
  O26      1.0000 0.86632  0.69504  0.86632  Biso   1.000  O
  Zn9      1.0000 0.00000  0.00000  0.00000  Biso   1.000  Zn
  Zn10     1.0000 0.00001  0.99999  0.17366  Biso   1.000  Zn
  Zn11     1.0000 0.82635  1.00000  0.17365  Biso   1.000  Zn
  Zn12     1.0000 0.00001  0.82634  0.17366  Biso   1.000  Zn
  Zn13     1.0000 0.41123  0.41121  0.75851  Biso   1.000  Zn
  Zn14     1.0000 0.41122  0.41121  0.58486  Biso   1.000  Zn
  Zn15     1.0000 0.41123  0.58485  0.58486  Biso   1.000  Zn
  Zn16     1.0000 0.58487  0.41121  0.58485  Biso   1.000  Zn
  H25      1.0000 0.16169  0.16167  0.81404  Biso   1.000  H
  H26      1.0000 0.16169  0.16167  0.03232  Biso   1.000  H
  H27      1.0000 0.64040  0.85867  0.33533  Biso   1.000  H
  H28      1.0000 0.85869  0.64038  0.33533  Biso   1.000  H
  H29      1.0000 0.16169  0.64038  0.03232  Biso   1.000  H
  H30      1.0000 0.16169  0.85867  0.81404  Biso   1.000  H
  H31      1.0000 0.64040  0.16167  0.33533  Biso   1.000  H
  H32      1.0000 0.85869  0.16167  0.33533  Biso   1.000  H
  H33      1.0000 0.16169  0.85867  0.33533  Biso   1.000  H
  H34      1.0000 0.16169  0.64038  0.33533  Biso   1.000  H
  H35      1.0000 0.64040  0.16167  0.03232  Biso   1.000  H
  H36      1.0000 0.85869  0.16167  0.81404  Biso   1.000  H
  H37      1.0000 0.24955  0.24953  0.94447  Biso   1.000  H
  H38      1.0000 0.24955  0.24953  0.72619  Biso   1.000  H
  H39      1.0000 0.55255  0.77081  0.42318  Biso   1.000  H
  H40      1.0000 0.77083  0.55253  0.42318  Biso   1.000  H
  H41      1.0000 0.77083  0.24953  0.72619  Biso   1.000  H
  H42      1.0000 0.55255  0.24953  0.94447  Biso   1.000  H
  H43      1.0000 0.24955  0.77081  0.42318  Biso   1.000  H
  H44      1.0000 0.24955  0.55253  0.42318  Biso   1.000  H
  H45      1.0000 0.55255  0.24953  0.42318  Biso   1.000  H
  H46      1.0000 0.77083  0.24953  0.42318  Biso   1.000  H
  H47      1.0000 0.24955  0.77081  0.72619  Biso   1.000  H
  H48      1.0000 0.24955  0.55253  0.94447  Biso   1.000  H
  C49      1.0000 0.17932  0.17930  0.84070  Biso   1.000  C
  C50      1.0000 0.17932  0.17930  0.97041  Biso   1.000  C
  C51      1.0000 0.66706  0.79675  0.35296  Biso   1.000  C
  C52      1.0000 0.79677  0.66704  0.35296  Biso   1.000  C
  C53      1.0000 0.17932  0.66704  0.97041  Biso   1.000  C
  C54      1.0000 0.17932  0.79675  0.84070  Biso   1.000  C
  C55      1.0000 0.66706  0.17930  0.35296  Biso   1.000  C
  C56      1.0000 0.79677  0.17930  0.35296  Biso   1.000  C
  C57      1.0000 0.17932  0.79675  0.35296  Biso   1.000  C
  C58      1.0000 0.17932  0.66704  0.35296  Biso   1.000  C
  C59      1.0000 0.66706  0.17930  0.97041  Biso   1.000  C
  C60      1.0000 0.79677  0.17930  0.84070  Biso   1.000  C
  C61      1.0000 0.23192  0.23190  0.91781  Biso   1.000  C
  C62      1.0000 0.23192  0.23190  0.78810  Biso   1.000  C
  C63      1.0000 0.61447  0.74416  0.40555  Biso   1.000  C
  C64      1.0000 0.74418  0.61445  0.40555  Biso   1.000  C
  C65      1.0000 0.74418  0.23190  0.78810  Biso   1.000  C
  C66      1.0000 0.61447  0.23190  0.91781  Biso   1.000  C
  C67      1.0000 0.23192  0.74416  0.40555  Biso   1.000  C
  C68      1.0000 0.23192  0.61445  0.40555  Biso   1.000  C
  C69      1.0000 0.61447  0.23190  0.40555  Biso   1.000  C
  C70      1.0000 0.74418  0.23190  0.40555  Biso   1.000  C
  C71      1.0000 0.23192  0.74416  0.78810  Biso   1.000  C
  C72      1.0000 0.23192  0.61445  0.91781  Biso   1.000  C
  C73      1.0000 0.09466  0.09464  0.99218  Biso   1.000  C
  C74      1.0000 0.15223  0.15221  0.93461  Biso   1.000  C
  C75      1.0000 0.81855  0.81853  0.26829  Biso   1.000  C
  C76      1.0000 0.76097  0.76095  0.32587  Biso   1.000  C
  C77      1.0000 0.09466  0.81853  0.99218  Biso   1.000  C
  C78      1.0000 0.15223  0.76095  0.93461  Biso   1.000  C
  C79      1.0000 0.81855  0.09464  0.26829  Biso   1.000  C
  C80      1.0000 0.76097  0.15221  0.32587  Biso   1.000  C
  C81      1.0000 0.09466  0.81853  0.26829  Biso   1.000  C
  C82      1.0000 0.15223  0.76095  0.32587  Biso   1.000  C
  C83      1.0000 0.81855  0.09464  0.99218  Biso   1.000  C
  C84      1.0000 0.76097  0.15221  0.93461  Biso   1.000  C
  C85      1.0000 0.31658  0.31656  0.76633  Biso   1.000  C
  C86      1.0000 0.25901  0.25899  0.82390  Biso   1.000  C
  C87      1.0000 0.59269  0.59267  0.49022  Biso   1.000  C
  C88      1.0000 0.65027  0.65025  0.43264  Biso   1.000  C
  C89      1.0000 0.59269  0.31656  0.76633  Biso   1.000  C
  C90      1.0000 0.65027  0.25899  0.82390  Biso   1.000  C
  C91      1.0000 0.31658  0.59267  0.49022  Biso   1.000  C
  C92      1.0000 0.25901  0.65025  0.43264  Biso   1.000  C
  C93      1.0000 0.59269  0.31656  0.49022  Biso   1.000  C
  C94      1.0000 0.65027  0.25899  0.43264  Biso   1.000  C
  C95      1.0000 0.31658  0.59267  0.76633  Biso   1.000  C
  C96      1.0000 0.25901  0.65025  0.82390  Biso   1.000  C
  O27      1.0000 0.95660  0.95658  0.13024  Biso   1.000  O
  O28      1.0000 0.45464  0.45462  0.62827  Biso   1.000  O
  O29      1.0000 0.07219  0.07217  0.95433  Biso   1.000  O
  O30      1.0000 0.07219  0.07217  0.07497  Biso   1.000  O
  O31      1.0000 0.78069  0.90132  0.24582  Biso   1.000  O
  O32      1.0000 0.90134  0.78067  0.24582  Biso   1.000  O
  O33      1.0000 0.07219  0.78067  0.07497  Biso   1.000  O
  O34      1.0000 0.07219  0.90132  0.95433  Biso   1.000  O
  O35      1.0000 0.78069  0.07217  0.24582  Biso   1.000  O
  O36      1.0000 0.90134  0.07217  0.24582  Biso   1.000  O
  O37      1.0000 0.07219  0.90132  0.24582  Biso   1.000  O
  O38      1.0000 0.07219  0.78067  0.24582  Biso   1.000  O
  O39      1.0000 0.78069  0.07217  0.07497  Biso   1.000  O
  O40      1.0000 0.90134  0.07217  0.95433  Biso   1.000  O
  O41      1.0000 0.33905  0.33903  0.80418  Biso   1.000  O
  O42      1.0000 0.33905  0.33903  0.68353  Biso   1.000  O
  O43      1.0000 0.50990  0.63052  0.51269  Biso   1.000  O
  O44      1.0000 0.63054  0.50988  0.51269  Biso   1.000  O
  O45      1.0000 0.63054  0.33903  0.68353  Biso   1.000  O
  O46      1.0000 0.50990  0.33903  0.80418  Biso   1.000  O
  O47      1.0000 0.33905  0.63052  0.51269  Biso   1.000  O
  O48      1.0000 0.33905  0.50988  0.51269  Biso   1.000  O
  O49      1.0000 0.50990  0.33903  0.51269  Biso   1.000  O
  O50      1.0000 0.63054  0.33903  0.51269  Biso   1.000  O
  O51      1.0000 0.33905  0.63052  0.68353  Biso   1.000  O
