data_image0
_cell_length_a       18.283
_cell_length_b       18.283
_cell_length_c       18.283
_cell_angle_alpha    60
_cell_angle_beta     60
_cell_angle_gamma    60

_symmetry_space_group_name_H-M    "P 1"
_symmetry_int_tables_number       1

loop_
  _symmetry_equiv_pos_as_xyz
  'x, y, z'

loop_
  _atom_site_label
  _atom_site_occupancy
  _atom_site_fract_x
  _atom_site_fract_y
  _atom_site_fract_z
  _atom_site_thermal_displace_type
  _atom_site_B_iso_or_equiv
  _atom_site_type_symbol
  C1       1.0000 0.20657  0.38031  0.20656  Biso   1.000  C
  C2       1.0000 0.38032  0.20656  0.20656  Biso   1.000  C
  C3       1.0000 0.20657  0.20656  0.20656  Biso   1.000  C
  C4       1.0000 0.20657  0.20656  0.38031  Biso   1.000  C
  C5       1.0000 0.61968  0.79344  0.79344  Biso   1.000  C
  C6       1.0000 0.79343  0.61969  0.79344  Biso   1.000  C
  C7       1.0000 0.79343  0.79344  0.79344  Biso   1.000  C
  C8       1.0000 0.79343  0.79344  0.61969  Biso   1.000  C
  C9       1.0000 0.04500  0.56540  0.04500  Biso   1.000  C
  C10      1.0000 0.56540  0.04500  0.34460  Biso   1.000  C
  C11      1.0000 0.04500  0.34460  0.04500  Biso   1.000  C
  C12      1.0000 0.34460  0.04500  0.56540  Biso   1.000  C
  C13      1.0000 0.04500  0.04500  0.34460  Biso   1.000  C
  C14      1.0000 0.56540  0.34460  0.04500  Biso   1.000  C
  C15      1.0000 0.04500  0.04500  0.56540  Biso   1.000  C
  C16      1.0000 0.34460  0.56540  0.04500  Biso   1.000  C
  C17      1.0000 0.04500  0.34460  0.56540  Biso   1.000  C
  C18      1.0000 0.56540  0.04500  0.04500  Biso   1.000  C
  C19      1.0000 0.04500  0.56540  0.34460  Biso   1.000  C
  C20      1.0000 0.34460  0.04500  0.04500  Biso   1.000  C
  C21      1.0000 0.43460  0.95500  0.95500  Biso   1.000  C
  C22      1.0000 0.95500  0.43460  0.65540  Biso   1.000  C
  C23      1.0000 0.65540  0.95500  0.95500  Biso   1.000  C
  C24      1.0000 0.95500  0.65540  0.43460  Biso   1.000  C
  C25      1.0000 0.95500  0.95500  0.65540  Biso   1.000  C
  C26      1.0000 0.65540  0.43460  0.95500  Biso   1.000  C
  C27      1.0000 0.95500  0.95500  0.43460  Biso   1.000  C
  C28      1.0000 0.43460  0.65540  0.95500  Biso   1.000  C
  C29      1.0000 0.65540  0.95500  0.43460  Biso   1.000  C
  C30      1.0000 0.95500  0.43460  0.95500  Biso   1.000  C
  C31      1.0000 0.43460  0.95500  0.65540  Biso   1.000  C
  C32      1.0000 0.95500  0.65540  0.95500  Biso   1.000  C
  C33      1.0000 0.02670  0.53864  0.02670  Biso   1.000  C
  C34      1.0000 0.53864  0.02670  0.40796  Biso   1.000  C
  C35      1.0000 0.02670  0.40796  0.02670  Biso   1.000  C
  C36      1.0000 0.40796  0.02670  0.53864  Biso   1.000  C
  C37      1.0000 0.02670  0.02670  0.40796  Biso   1.000  C
  C38      1.0000 0.53864  0.40796  0.02670  Biso   1.000  C
  C39      1.0000 0.02670  0.02670  0.53864  Biso   1.000  C
  C40      1.0000 0.40796  0.53864  0.02670  Biso   1.000  C
  C41      1.0000 0.02670  0.40796  0.53864  Biso   1.000  C
  C42      1.0000 0.53864  0.02670  0.02670  Biso   1.000  C
  C43      1.0000 0.02670  0.53864  0.40796  Biso   1.000  C
  C44      1.0000 0.40796  0.02670  0.02670  Biso   1.000  C
  C45      1.0000 0.46136  0.97330  0.97330  Biso   1.000  C
  C46      1.0000 0.97330  0.46136  0.59204  Biso   1.000  C
  C47      1.0000 0.59204  0.97330  0.97330  Biso   1.000  C
  C48      1.0000 0.97330  0.59204  0.46136  Biso   1.000  C
  C49      1.0000 0.97330  0.97330  0.59204  Biso   1.000  C
  C50      1.0000 0.59204  0.46136  0.97330  Biso   1.000  C
  C51      1.0000 0.97330  0.97330  0.46136  Biso   1.000  C
  C52      1.0000 0.46136  0.59204  0.97330  Biso   1.000  C
  C53      1.0000 0.59204  0.97330  0.46136  Biso   1.000  C
  C54      1.0000 0.97330  0.46136  0.97330  Biso   1.000  C
  C55      1.0000 0.46136  0.97330  0.59204  Biso   1.000  C
  C56      1.0000 0.97330  0.59204  0.97330  Biso   1.000  C
  C57      1.0000 0.11148  0.38852  0.11148  Biso   1.000  C
  C58      1.0000 0.05372  0.44628  0.05372  Biso   1.000  C
  C59      1.0000 0.38852  0.11148  0.38852  Biso   1.000  C
  C60      1.0000 0.44628  0.05372  0.44628  Biso   1.000  C
  C61      1.0000 0.11148  0.11148  0.38852  Biso   1.000  C
  C62      1.0000 0.05372  0.05372  0.44628  Biso   1.000  C
  C63      1.0000 0.38852  0.38852  0.11148  Biso   1.000  C
  C64      1.0000 0.44628  0.44628  0.05372  Biso   1.000  C
  C65      1.0000 0.11148  0.38852  0.38852  Biso   1.000  C
  C66      1.0000 0.05372  0.44628  0.44628  Biso   1.000  C
  C67      1.0000 0.38852  0.11148  0.11148  Biso   1.000  C
  C68      1.0000 0.44628  0.05372  0.05372  Biso   1.000  C
  C69      1.0000 0.61148  0.88852  0.88852  Biso   1.000  C
  C70      1.0000 0.55372  0.94628  0.94628  Biso   1.000  C
  C71      1.0000 0.88852  0.61148  0.61148  Biso   1.000  C
  C72      1.0000 0.94628  0.55372  0.55372  Biso   1.000  C
  C73      1.0000 0.88852  0.88852  0.61148  Biso   1.000  C
  C74      1.0000 0.94628  0.94628  0.55372  Biso   1.000  C
  C75      1.0000 0.61148  0.61148  0.88852  Biso   1.000  C
  C76      1.0000 0.55372  0.55372  0.94628  Biso   1.000  C
  C77      1.0000 0.61148  0.88852  0.61148  Biso   1.000  C
  C78      1.0000 0.55372  0.94628  0.55372  Biso   1.000  C
  C79      1.0000 0.88852  0.61148  0.88852  Biso   1.000  C
  C80      1.0000 0.94628  0.55372  0.94628  Biso   1.000  C
  C81      1.0000 0.25000  0.25000  0.25000  Biso   1.000  C
  C82      1.0000 0.75000  0.75000  0.75000  Biso   1.000  C
  C83      1.0000 0.13373  0.42751  0.13373  Biso   1.000  C
  C84      1.0000 0.42751  0.13373  0.30503  Biso   1.000  C
  C85      1.0000 0.13373  0.30503  0.13373  Biso   1.000  C
  C86      1.0000 0.30503  0.13373  0.42751  Biso   1.000  C
  C87      1.0000 0.13373  0.13373  0.30503  Biso   1.000  C
  C88      1.0000 0.42751  0.30503  0.13373  Biso   1.000  C
  C89      1.0000 0.13373  0.13373  0.42751  Biso   1.000  C
  C90      1.0000 0.30503  0.42751  0.13373  Biso   1.000  C
  C91      1.0000 0.13373  0.30503  0.42751  Biso   1.000  C
  C92      1.0000 0.42751  0.13373  0.13373  Biso   1.000  C
  C93      1.0000 0.13373  0.42751  0.30503  Biso   1.000  C
  C94      1.0000 0.30503  0.13373  0.13373  Biso   1.000  C
  C95      1.0000 0.57249  0.86627  0.86627  Biso   1.000  C
  C96      1.0000 0.86627  0.57249  0.69497  Biso   1.000  C
  C97      1.0000 0.69497  0.86627  0.86627  Biso   1.000  C
  C98      1.0000 0.86627  0.69497  0.57249  Biso   1.000  C
  C99      1.0000 0.86627  0.86627  0.69497  Biso   1.000  C
  C100     1.0000 0.69497  0.57249  0.86627  Biso   1.000  C
  C101     1.0000 0.86627  0.86627  0.57249  Biso   1.000  C
  C102     1.0000 0.57249  0.69497  0.86627  Biso   1.000  C
  C103     1.0000 0.69497  0.86627  0.57249  Biso   1.000  C
  C104     1.0000 0.86627  0.57249  0.86627  Biso   1.000  C
  C105     1.0000 0.57249  0.86627  0.69497  Biso   1.000  C
  C106     1.0000 0.86627  0.69497  0.86627  Biso   1.000  C
  O1       1.0000 0.17206  0.97286  0.87085  Biso   1.000  O
  O2       1.0000 0.99932  0.97286  0.04359  Biso   1.000  O
  O3       1.0000 0.99932  0.14560  0.87085  Biso   1.000  O
  O4       1.0000 0.99932  0.97286  0.87085  Biso   1.000  O
  O5       1.0000 0.40209  0.56285  0.46083  Biso   1.000  O
  O6       1.0000 0.57483  0.56285  0.28809  Biso   1.000  O
  O7       1.0000 0.57483  0.56285  0.46083  Biso   1.000  O
  O8       1.0000 0.57483  0.39011  0.46083  Biso   1.000  O
  O9       1.0000 0.35681  0.81273  0.00636  Biso   1.000  O
  O10      1.0000 0.12759  0.81273  0.23558  Biso   1.000  O
  O11      1.0000 0.83195  0.33759  0.71071  Biso   1.000  O
  O12      1.0000 0.83195  0.10837  0.71071  Biso   1.000  O
  O13      1.0000 0.83195  0.10837  0.23558  Biso   1.000  O
  O14      1.0000 0.83195  0.33759  0.00636  Biso   1.000  O
  O15      1.0000 0.35681  0.81273  0.71071  Biso   1.000  O
  O16      1.0000 0.12759  0.81273  0.71071  Biso   1.000  O
  O17      1.0000 0.12759  0.33759  0.71071  Biso   1.000  O
  O18      1.0000 0.35681  0.10837  0.71071  Biso   1.000  O
  O19      1.0000 0.83195  0.81273  0.23558  Biso   1.000  O
  O20      1.0000 0.83195  0.81273  0.00636  Biso   1.000  O
  O21      1.0000 0.21734  0.72298  0.32532  Biso   1.000  O
  O22      1.0000 0.44656  0.72298  0.09610  Biso   1.000  O
  O23      1.0000 0.74220  0.42734  0.62097  Biso   1.000  O
  O24      1.0000 0.74220  0.19812  0.62097  Biso   1.000  O
  O25      1.0000 0.74220  0.72298  0.09610  Biso   1.000  O
  O26      1.0000 0.74220  0.72298  0.32532  Biso   1.000  O
  O27      1.0000 0.21734  0.42734  0.62097  Biso   1.000  O
  O28      1.0000 0.44656  0.19812  0.62097  Biso   1.000  O
  O29      1.0000 0.44656  0.72298  0.62097  Biso   1.000  O
  O30      1.0000 0.21734  0.72298  0.62097  Biso   1.000  O
  O31      1.0000 0.74220  0.42734  0.09610  Biso   1.000  O
  O32      1.0000 0.74220  0.19812  0.32532  Biso   1.000  O
  O33      1.0000 0.33031  0.79396  0.07039  Biso   1.000  O
  O34      1.0000 0.19163  0.79396  0.20907  Biso   1.000  O
  O35      1.0000 0.81319  0.31108  0.69195  Biso   1.000  O
  O36      1.0000 0.81319  0.17240  0.69195  Biso   1.000  O
  O37      1.0000 0.81319  0.17240  0.20907  Biso   1.000  O
  O38      1.0000 0.81319  0.31108  0.07039  Biso   1.000  O
  O39      1.0000 0.33031  0.79396  0.69195  Biso   1.000  O
  O40      1.0000 0.19163  0.79396  0.69195  Biso   1.000  O
  O41      1.0000 0.19163  0.31108  0.69195  Biso   1.000  O
  O42      1.0000 0.33031  0.17240  0.69195  Biso   1.000  O
  O43      1.0000 0.81319  0.79396  0.20907  Biso   1.000  O
  O44      1.0000 0.81319  0.79396  0.07039  Biso   1.000  O
  O45      1.0000 0.24385  0.74174  0.26129  Biso   1.000  O
  O46      1.0000 0.38253  0.74174  0.12261  Biso   1.000  O
  O47      1.0000 0.76097  0.36330  0.63973  Biso   1.000  O
  O48      1.0000 0.76097  0.22462  0.63973  Biso   1.000  O
  O49      1.0000 0.76097  0.74174  0.12261  Biso   1.000  O
  O50      1.0000 0.76097  0.74174  0.26129  Biso   1.000  O
  O51      1.0000 0.24385  0.36330  0.63973  Biso   1.000  O
  O52      1.0000 0.38253  0.22462  0.63973  Biso   1.000  O
  O53      1.0000 0.38253  0.74174  0.63973  Biso   1.000  O
  O54      1.0000 0.24385  0.74174  0.63973  Biso   1.000  O
  O55      1.0000 0.76097  0.36330  0.12261  Biso   1.000  O
  O56      1.0000 0.76097  0.22462  0.26129  Biso   1.000  O
  O57      1.0000 0.18099  0.87755  0.05252  Biso   1.000  O
  O58      1.0000 0.23728  0.82126  0.10881  Biso   1.000  O
  O59      1.0000 0.90401  0.15453  0.77554  Biso   1.000  O
  O60      1.0000 0.84772  0.21082  0.71925  Biso   1.000  O
  O61      1.0000 0.90401  0.15453  0.05252  Biso   1.000  O
  O62      1.0000 0.84772  0.21082  0.10881  Biso   1.000  O
  O63      1.0000 0.18099  0.87755  0.77554  Biso   1.000  O
  O64      1.0000 0.23728  0.82126  0.71925  Biso   1.000  O
  O65      1.0000 0.18099  0.15453  0.77554  Biso   1.000  O
  O66      1.0000 0.23728  0.21082  0.71925  Biso   1.000  O
  O67      1.0000 0.90401  0.87755  0.05252  Biso   1.000  O
  O68      1.0000 0.84772  0.82126  0.10881  Biso   1.000  O
  O69      1.0000 0.39316  0.65815  0.27916  Biso   1.000  O
  O70      1.0000 0.33687  0.71444  0.22287  Biso   1.000  O
  O71      1.0000 0.67014  0.38117  0.55614  Biso   1.000  O
  O72      1.0000 0.72643  0.32488  0.61243  Biso   1.000  O
  O73      1.0000 0.67014  0.65815  0.27916  Biso   1.000  O
  O74      1.0000 0.72643  0.71444  0.22287  Biso   1.000  O
  O75      1.0000 0.39316  0.38117  0.55614  Biso   1.000  O
  O76      1.0000 0.33687  0.32488  0.61243  Biso   1.000  O
  O77      1.0000 0.39316  0.65815  0.55614  Biso   1.000  O
  O78      1.0000 0.33687  0.71444  0.61243  Biso   1.000  O
  O79      1.0000 0.67014  0.38117  0.27916  Biso   1.000  O
  O80      1.0000 0.72643  0.32488  0.22287  Biso   1.000  O
  O81      1.0000 0.04250  0.01604  0.91403  Biso   1.000  O
  O82      1.0000 0.53165  0.51966  0.41765  Biso   1.000  O
  O83      1.0000 0.22090  0.90078  0.96615  Biso   1.000  O
  O84      1.0000 0.09462  0.90078  0.09243  Biso   1.000  O
  O85      1.0000 0.92724  0.19444  0.79877  Biso   1.000  O
  O86      1.0000 0.92724  0.06816  0.79877  Biso   1.000  O
  O87      1.0000 0.92724  0.06816  0.09243  Biso   1.000  O
  O88      1.0000 0.92724  0.19444  0.96615  Biso   1.000  O
  O89      1.0000 0.22090  0.90078  0.79877  Biso   1.000  O
  O90      1.0000 0.09462  0.90078  0.79877  Biso   1.000  O
  O91      1.0000 0.09462  0.19444  0.79877  Biso   1.000  O
  O92      1.0000 0.22090  0.06816  0.79877  Biso   1.000  O
  O93      1.0000 0.92724  0.90078  0.09243  Biso   1.000  O
  O94      1.0000 0.92724  0.90078  0.96615  Biso   1.000  O
  O95      1.0000 0.35325  0.63492  0.36553  Biso   1.000  O
  O96      1.0000 0.47953  0.63492  0.23925  Biso   1.000  O
  O97      1.0000 0.64691  0.46754  0.53291  Biso   1.000  O
  O98      1.0000 0.64691  0.34126  0.53291  Biso   1.000  O
  O99      1.0000 0.64691  0.63492  0.23925  Biso   1.000  O
  O100     1.0000 0.64691  0.63492  0.36553  Biso   1.000  O
  O101     1.0000 0.35325  0.46754  0.53291  Biso   1.000  O
  O102     1.0000 0.47953  0.34126  0.53291  Biso   1.000  O
  O103     1.0000 0.47953  0.63492  0.53291  Biso   1.000  O
  O104     1.0000 0.35325  0.63492  0.53291  Biso   1.000  O
  O105     1.0000 0.64691  0.46754  0.23925  Biso   1.000  O
