data_image0
_cell_length_a       18.283
_cell_length_b       18.283
_cell_length_c       18.283
_cell_angle_alpha    60
_cell_angle_beta     60
_cell_angle_gamma    60

_symmetry_space_group_name_H-M    "P 1"
_symmetry_int_tables_number       1

loop_
  _symmetry_equiv_pos_as_xyz
  'x, y, z'

loop_
  _atom_site_label
  _atom_site_occupancy
  _atom_site_fract_x
  _atom_site_fract_y
  _atom_site_fract_z
  _atom_site_thermal_displace_type
  _atom_site_B_iso_or_equiv
  _atom_site_type_symbol
  Zn1      1.0000 0.20657  0.38031  0.20656  Biso   1.000  Zn
  Zn2      1.0000 0.38032  0.20656  0.20656  Biso   1.000  Zn
  Zn3      1.0000 0.20657  0.20656  0.20656  Biso   1.000  Zn
  Zn4      1.0000 0.20657  0.20656  0.38031  Biso   1.000  Zn
  Zn5      1.0000 0.61968  0.79344  0.79344  Biso   1.000  Zn
  Zn6      1.0000 0.79343  0.61969  0.79344  Biso   1.000  Zn
  Zn7      1.0000 0.79343  0.79344  0.79344  Biso   1.000  Zn
  Zn8      1.0000 0.79343  0.79344  0.61969  Biso   1.000  Zn
  H1       1.0000 0.04500  0.56540  0.04500  Biso   1.000  H
  H2       1.0000 0.56540  0.04500  0.34460  Biso   1.000  H
  H3       1.0000 0.04500  0.34460  0.04500  Biso   1.000  H
  H4       1.0000 0.34460  0.04500  0.56540  Biso   1.000  H
  H5       1.0000 0.04500  0.04500  0.34460  Biso   1.000  H
  H6       1.0000 0.56540  0.34460  0.04500  Biso   1.000  H
  H7       1.0000 0.04500  0.04500  0.56540  Biso   1.000  H
  H8       1.0000 0.34460  0.56540  0.04500  Biso   1.000  H
  H9       1.0000 0.04500  0.34460  0.56540  Biso   1.000  H
  H10      1.0000 0.56540  0.04500  0.04500  Biso   1.000  H
  H11      1.0000 0.04500  0.56540  0.34460  Biso   1.000  H
  H12      1.0000 0.34460  0.04500  0.04500  Biso   1.000  H
  H13      1.0000 0.43460  0.95500  0.95500  Biso   1.000  H
  H14      1.0000 0.95500  0.43460  0.65540  Biso   1.000  H
  H15      1.0000 0.65540  0.95500  0.95500  Biso   1.000  H
  H16      1.0000 0.95500  0.65540  0.43460  Biso   1.000  H
  H17      1.0000 0.95500  0.95500  0.65540  Biso   1.000  H
  H18      1.0000 0.65540  0.43460  0.95500  Biso   1.000  H
  H19      1.0000 0.95500  0.95500  0.43460  Biso   1.000  H
  H20      1.0000 0.43460  0.65540  0.95500  Biso   1.000  H
  H21      1.0000 0.65540  0.95500  0.43460  Biso   1.000  H
  H22      1.0000 0.95500  0.43460  0.95500  Biso   1.000  H
  H23      1.0000 0.43460  0.95500  0.65540  Biso   1.000  H
  H24      1.0000 0.95500  0.65540  0.95500  Biso   1.000  H
  C1       1.0000 0.02670  0.53864  0.02670  Biso   1.000  C
  C2       1.0000 0.53864  0.02670  0.40796  Biso   1.000  C
  C3       1.0000 0.02670  0.40796  0.02670  Biso   1.000  C
  C4       1.0000 0.40796  0.02670  0.53864  Biso   1.000  C
  C5       1.0000 0.02670  0.02670  0.40796  Biso   1.000  C
  C6       1.0000 0.53864  0.40796  0.02670  Biso   1.000  C
  C7       1.0000 0.02670  0.02670  0.53864  Biso   1.000  C
  C8       1.0000 0.40796  0.53864  0.02670  Biso   1.000  C
  C9       1.0000 0.02670  0.40796  0.53864  Biso   1.000  C
  C10      1.0000 0.53864  0.02670  0.02670  Biso   1.000  C
  C11      1.0000 0.02670  0.53864  0.40796  Biso   1.000  C
  C12      1.0000 0.40796  0.02670  0.02670  Biso   1.000  C
  C13      1.0000 0.46136  0.97330  0.97330  Biso   1.000  C
  C14      1.0000 0.97330  0.46136  0.59204  Biso   1.000  C
  C15      1.0000 0.59204  0.97330  0.97330  Biso   1.000  C
  C16      1.0000 0.97330  0.59204  0.46136  Biso   1.000  C
  C17      1.0000 0.97330  0.97330  0.59204  Biso   1.000  C
  C18      1.0000 0.59204  0.46136  0.97330  Biso   1.000  C
  C19      1.0000 0.97330  0.97330  0.46136  Biso   1.000  C
  C20      1.0000 0.46136  0.59204  0.97330  Biso   1.000  C
  C21      1.0000 0.59204  0.97330  0.46136  Biso   1.000  C
  C22      1.0000 0.97330  0.46136  0.97330  Biso   1.000  C
  C23      1.0000 0.46136  0.97330  0.59204  Biso   1.000  C
  C24      1.0000 0.97330  0.59204  0.97330  Biso   1.000  C
  C25      1.0000 0.11148  0.38852  0.11148  Biso   1.000  C
  C26      1.0000 0.05372  0.44628  0.05372  Biso   1.000  C
  C27      1.0000 0.38852  0.11148  0.38852  Biso   1.000  C
  C28      1.0000 0.44628  0.05372  0.44628  Biso   1.000  C
  C29      1.0000 0.11148  0.11148  0.38852  Biso   1.000  C
  C30      1.0000 0.05372  0.05372  0.44628  Biso   1.000  C
  C31      1.0000 0.38852  0.38852  0.11148  Biso   1.000  C
  C32      1.0000 0.44628  0.44628  0.05372  Biso   1.000  C
  C33      1.0000 0.11148  0.38852  0.38852  Biso   1.000  C
  C34      1.0000 0.05372  0.44628  0.44628  Biso   1.000  C
  C35      1.0000 0.38852  0.11148  0.11148  Biso   1.000  C
  C36      1.0000 0.44628  0.05372  0.05372  Biso   1.000  C
  C37      1.0000 0.61148  0.88852  0.88852  Biso   1.000  C
  C38      1.0000 0.55372  0.94628  0.94628  Biso   1.000  C
  C39      1.0000 0.88852  0.61148  0.61148  Biso   1.000  C
  C40      1.0000 0.94628  0.55372  0.55372  Biso   1.000  C
  C41      1.0000 0.88852  0.88852  0.61148  Biso   1.000  C
  C42      1.0000 0.94628  0.94628  0.55372  Biso   1.000  C
  C43      1.0000 0.61148  0.61148  0.88852  Biso   1.000  C
  C44      1.0000 0.55372  0.55372  0.94628  Biso   1.000  C
  C45      1.0000 0.61148  0.88852  0.61148  Biso   1.000  C
  C46      1.0000 0.55372  0.94628  0.55372  Biso   1.000  C
  C47      1.0000 0.88852  0.61148  0.88852  Biso   1.000  C
  C48      1.0000 0.94628  0.55372  0.94628  Biso   1.000  C
  O1       1.0000 0.25000  0.25000  0.25000  Biso   1.000  O
  O2       1.0000 0.75000  0.75000  0.75000  Biso   1.000  O
  O3       1.0000 0.13373  0.42751  0.13373  Biso   1.000  O
  O4       1.0000 0.42751  0.13373  0.30503  Biso   1.000  O
  O5       1.0000 0.13373  0.30503  0.13373  Biso   1.000  O
  O6       1.0000 0.30503  0.13373  0.42751  Biso   1.000  O
  O7       1.0000 0.13373  0.13373  0.30503  Biso   1.000  O
  O8       1.0000 0.42751  0.30503  0.13373  Biso   1.000  O
  O9       1.0000 0.13373  0.13373  0.42751  Biso   1.000  O
  O10      1.0000 0.30503  0.42751  0.13373  Biso   1.000  O
  O11      1.0000 0.13373  0.30503  0.42751  Biso   1.000  O
  O12      1.0000 0.42751  0.13373  0.13373  Biso   1.000  O
  O13      1.0000 0.13373  0.42751  0.30503  Biso   1.000  O
  O14      1.0000 0.30503  0.13373  0.13373  Biso   1.000  O
  O15      1.0000 0.57249  0.86627  0.86627  Biso   1.000  O
  O16      1.0000 0.86627  0.57249  0.69497  Biso   1.000  O
  O17      1.0000 0.69497  0.86627  0.86627  Biso   1.000  O
  O18      1.0000 0.86627  0.69497  0.57249  Biso   1.000  O
  O19      1.0000 0.86627  0.86627  0.69497  Biso   1.000  O
  O20      1.0000 0.69497  0.57249  0.86627  Biso   1.000  O
  O21      1.0000 0.86627  0.86627  0.57249  Biso   1.000  O
  O22      1.0000 0.57249  0.69497  0.86627  Biso   1.000  O
  O23      1.0000 0.69497  0.86627  0.57249  Biso   1.000  O
  O24      1.0000 0.86627  0.57249  0.86627  Biso   1.000  O
  O25      1.0000 0.57249  0.86627  0.69497  Biso   1.000  O
  O26      1.0000 0.86627  0.69497  0.86627  Biso   1.000  O
  Zn9      1.0000 0.00550  0.83954  0.13398  Biso   1.000  Zn
  Zn10     1.0000 0.00550  0.01274  0.13398  Biso   1.000  Zn
  Zn11     1.0000 0.83230  0.01274  0.13398  Biso   1.000  Zn
  Zn12     1.0000 0.00550  0.01274  0.96078  Biso   1.000  Zn
  Zn13     1.0000 0.41890  0.42614  0.54738  Biso   1.000  Zn
  Zn14     1.0000 0.41890  0.59934  0.54738  Biso   1.000  Zn
  Zn15     1.0000 0.59210  0.42614  0.54738  Biso   1.000  Zn
  Zn16     1.0000 0.41890  0.42614  0.72058  Biso   1.000  Zn
  H25      1.0000 0.87480  0.65564  0.29128  Biso   1.000  H
  H26      1.0000 0.16280  0.17004  0.00328  Biso   1.000  H
  H27      1.0000 0.64840  0.88204  0.29128  Biso   1.000  H
  H28      1.0000 0.16280  0.17004  0.77688  Biso   1.000  H
  H29      1.0000 0.64840  0.17004  0.00328  Biso   1.000  H
  H30      1.0000 0.16280  0.88204  0.29128  Biso   1.000  H
  H31      1.0000 0.87480  0.17004  0.77688  Biso   1.000  H
  H32      1.0000 0.16280  0.65564  0.29128  Biso   1.000  H
  H33      1.0000 0.16280  0.88204  0.77688  Biso   1.000  H
  H34      1.0000 0.87480  0.17004  0.29128  Biso   1.000  H
  H35      1.0000 0.16280  0.65564  0.00328  Biso   1.000  H
  H36      1.0000 0.64840  0.17004  0.29128  Biso   1.000  H
  H37      1.0000 0.54960  0.26884  0.39008  Biso   1.000  H
  H38      1.0000 0.26160  0.78324  0.67808  Biso   1.000  H
  H39      1.0000 0.77600  0.26884  0.39008  Biso   1.000  H
  H40      1.0000 0.26160  0.55684  0.90448  Biso   1.000  H
  H41      1.0000 0.77600  0.26884  0.67808  Biso   1.000  H
  H42      1.0000 0.26160  0.78324  0.39008  Biso   1.000  H
  H43      1.0000 0.54960  0.26884  0.90448  Biso   1.000  H
  H44      1.0000 0.26160  0.55684  0.39008  Biso   1.000  H
  H45      1.0000 0.26160  0.26884  0.90448  Biso   1.000  H
  H46      1.0000 0.54960  0.78324  0.39008  Biso   1.000  H
  H47      1.0000 0.26160  0.26884  0.67808  Biso   1.000  H
  H48      1.0000 0.77600  0.55684  0.39008  Biso   1.000  H
  C49      1.0000 0.80440  0.68124  0.31368  Biso   1.000  C
  C50      1.0000 0.18520  0.19244  0.93288  Biso   1.000  C
  C51      1.0000 0.67400  0.81164  0.31368  Biso   1.000  C
  C52      1.0000 0.18520  0.19244  0.80248  Biso   1.000  C
  C53      1.0000 0.67400  0.19244  0.93288  Biso   1.000  C
  C54      1.0000 0.18520  0.81164  0.31368  Biso   1.000  C
  C55      1.0000 0.80440  0.19244  0.80248  Biso   1.000  C
  C56      1.0000 0.18520  0.68124  0.31368  Biso   1.000  C
  C57      1.0000 0.18520  0.81164  0.80248  Biso   1.000  C
  C58      1.0000 0.80440  0.19244  0.31368  Biso   1.000  C
  C59      1.0000 0.18520  0.68124  0.93288  Biso   1.000  C
  C60      1.0000 0.67400  0.19244  0.31368  Biso   1.000  C
  C61      1.0000 0.62000  0.24644  0.36768  Biso   1.000  C
  C62      1.0000 0.23920  0.75764  0.74848  Biso   1.000  C
  C63      1.0000 0.75040  0.24644  0.36768  Biso   1.000  C
  C64      1.0000 0.23920  0.62724  0.87888  Biso   1.000  C
  C65      1.0000 0.75040  0.24644  0.74848  Biso   1.000  C
  C66      1.0000 0.23920  0.75764  0.36768  Biso   1.000  C
  C67      1.0000 0.62000  0.24644  0.87888  Biso   1.000  C
  C68      1.0000 0.23920  0.62724  0.36768  Biso   1.000  C
  C69      1.0000 0.23920  0.24644  0.87888  Biso   1.000  C
  C70      1.0000 0.62000  0.75764  0.36768  Biso   1.000  C
  C71      1.0000 0.23920  0.24644  0.74848  Biso   1.000  C
  C72      1.0000 0.75040  0.62724  0.36768  Biso   1.000  C
  C73      1.0000 0.82290  0.83014  0.22998  Biso   1.000  C
  C74      1.0000 0.76640  0.77364  0.28648  Biso   1.000  C
  C75      1.0000 0.10150  0.10874  0.95138  Biso   1.000  C
  C76      1.0000 0.15800  0.16524  0.89488  Biso   1.000  C
  C77      1.0000 0.82290  0.10874  0.95138  Biso   1.000  C
  C78      1.0000 0.76640  0.16524  0.89488  Biso   1.000  C
  C79      1.0000 0.10150  0.83014  0.22998  Biso   1.000  C
  C80      1.0000 0.15800  0.77364  0.28648  Biso   1.000  C
  C81      1.0000 0.10150  0.83014  0.95138  Biso   1.000  C
  C82      1.0000 0.15800  0.77364  0.89488  Biso   1.000  C
  C83      1.0000 0.82290  0.10874  0.22998  Biso   1.000  C
  C84      1.0000 0.76640  0.16524  0.28648  Biso   1.000  C
  C85      1.0000 0.60150  0.33014  0.45138  Biso   1.000  C
  C86      1.0000 0.65800  0.27364  0.39488  Biso   1.000  C
  C87      1.0000 0.32290  0.60874  0.72998  Biso   1.000  C
  C88      1.0000 0.26640  0.66524  0.78648  Biso   1.000  C
  C89      1.0000 0.60150  0.33014  0.72998  Biso   1.000  C
  C90      1.0000 0.65800  0.27364  0.78648  Biso   1.000  C
  C91      1.0000 0.32290  0.60874  0.45138  Biso   1.000  C
  C92      1.0000 0.26640  0.66524  0.39488  Biso   1.000  C
  C93      1.0000 0.32290  0.33014  0.72998  Biso   1.000  C
  C94      1.0000 0.26640  0.27364  0.78648  Biso   1.000  C
  C95      1.0000 0.60150  0.60874  0.45138  Biso   1.000  C
  C96      1.0000 0.65800  0.66524  0.39488  Biso   1.000  C
  O27      1.0000 0.96220  0.96944  0.09068  Biso   1.000  O
  O28      1.0000 0.46220  0.46944  0.59068  Biso   1.000  O
  O29      1.0000 0.90750  0.79274  0.20638  Biso   1.000  O
  O30      1.0000 0.07790  0.08514  0.03598  Biso   1.000  O
  O31      1.0000 0.78550  0.91474  0.20638  Biso   1.000  O
  O32      1.0000 0.07790  0.08514  0.91398  Biso   1.000  O
  O33      1.0000 0.78550  0.08514  0.03598  Biso   1.000  O
  O34      1.0000 0.07790  0.91474  0.20638  Biso   1.000  O
  O35      1.0000 0.90750  0.08514  0.91398  Biso   1.000  O
  O36      1.0000 0.07790  0.79274  0.20638  Biso   1.000  O
  O37      1.0000 0.07790  0.91474  0.91398  Biso   1.000  O
  O38      1.0000 0.90750  0.08514  0.20638  Biso   1.000  O
  O39      1.0000 0.07790  0.79274  0.03598  Biso   1.000  O
  O40      1.0000 0.78550  0.08514  0.20638  Biso   1.000  O
  O41      1.0000 0.51690  0.35374  0.47498  Biso   1.000  O
  O42      1.0000 0.34650  0.64614  0.64538  Biso   1.000  O
  O43      1.0000 0.63890  0.35374  0.47498  Biso   1.000  O
  O44      1.0000 0.34650  0.52414  0.76738  Biso   1.000  O
  O45      1.0000 0.63890  0.35374  0.64538  Biso   1.000  O
  O46      1.0000 0.34650  0.64614  0.47498  Biso   1.000  O
  O47      1.0000 0.51690  0.35374  0.76738  Biso   1.000  O
  O48      1.0000 0.34650  0.52414  0.47498  Biso   1.000  O
  O49      1.0000 0.34650  0.35374  0.76738  Biso   1.000  O
  O50      1.0000 0.51690  0.64614  0.47498  Biso   1.000  O
  O51      1.0000 0.34650  0.35374  0.64538  Biso   1.000  O
