data_image0
_cell_length_a       18.2943
_cell_length_b       18.2943
_cell_length_c       18.2943
_cell_angle_alpha    60
_cell_angle_beta     60
_cell_angle_gamma    60

_symmetry_space_group_name_H-M    "P 1"
_symmetry_int_tables_number       1

loop_
  _symmetry_equiv_pos_as_xyz
  'x, y, z'

loop_
  _atom_site_label
  _atom_site_occupancy
  _atom_site_fract_x
  _atom_site_fract_y
  _atom_site_fract_z
  _atom_site_thermal_displace_type
  _atom_site_B_iso_or_equiv
  _atom_site_type_symbol
  C1       1.0000 0.20660  0.38020  0.20660  Biso   1.000  C
  C2       1.0000 0.38020  0.20660  0.20660  Biso   1.000  C
  C3       1.0000 0.20660  0.20660  0.20660  Biso   1.000  C
  C4       1.0000 0.20660  0.20660  0.38020  Biso   1.000  C
  C5       1.0000 0.61980  0.79340  0.79340  Biso   1.000  C
  C6       1.0000 0.79340  0.61980  0.79340  Biso   1.000  C
  C7       1.0000 0.79340  0.79340  0.79340  Biso   1.000  C
  C8       1.0000 0.79340  0.79340  0.61980  Biso   1.000  C
  C9       1.0000 0.04510  0.56550  0.04510  Biso   1.000  C
  C10      1.0000 0.56550  0.04510  0.34430  Biso   1.000  C
  C11      1.0000 0.04510  0.34430  0.04510  Biso   1.000  C
  C12      1.0000 0.34430  0.04510  0.56550  Biso   1.000  C
  C13      1.0000 0.04510  0.04510  0.34430  Biso   1.000  C
  C14      1.0000 0.56550  0.34430  0.04510  Biso   1.000  C
  C15      1.0000 0.04510  0.04510  0.56550  Biso   1.000  C
  C16      1.0000 0.34430  0.56550  0.04510  Biso   1.000  C
  C17      1.0000 0.04510  0.34430  0.56550  Biso   1.000  C
  C18      1.0000 0.56550  0.04510  0.04510  Biso   1.000  C
  C19      1.0000 0.04510  0.56550  0.34430  Biso   1.000  C
  C20      1.0000 0.34430  0.04510  0.04510  Biso   1.000  C
  C21      1.0000 0.43450  0.95490  0.95490  Biso   1.000  C
  C22      1.0000 0.95490  0.43450  0.65570  Biso   1.000  C
  C23      1.0000 0.65570  0.95490  0.95490  Biso   1.000  C
  C24      1.0000 0.95490  0.65570  0.43450  Biso   1.000  C
  C25      1.0000 0.95490  0.95490  0.65570  Biso   1.000  C
  C26      1.0000 0.65570  0.43450  0.95490  Biso   1.000  C
  C27      1.0000 0.95490  0.95490  0.43450  Biso   1.000  C
  C28      1.0000 0.43450  0.65570  0.95490  Biso   1.000  C
  C29      1.0000 0.65570  0.95490  0.43450  Biso   1.000  C
  C30      1.0000 0.95490  0.43450  0.95490  Biso   1.000  C
  C31      1.0000 0.43450  0.95490  0.65570  Biso   1.000  C
  C32      1.0000 0.95490  0.65570  0.95490  Biso   1.000  C
  C33      1.0000 0.02675  0.53889  0.02675  Biso   1.000  C
  C34      1.0000 0.53889  0.02675  0.40761  Biso   1.000  C
  C35      1.0000 0.02675  0.40761  0.02675  Biso   1.000  C
  C36      1.0000 0.40761  0.02675  0.53889  Biso   1.000  C
  C37      1.0000 0.02675  0.02675  0.40761  Biso   1.000  C
  C38      1.0000 0.53889  0.40761  0.02675  Biso   1.000  C
  C39      1.0000 0.02675  0.02675  0.53889  Biso   1.000  C
  C40      1.0000 0.40761  0.53889  0.02675  Biso   1.000  C
  C41      1.0000 0.02675  0.40761  0.53889  Biso   1.000  C
  C42      1.0000 0.53889  0.02675  0.02675  Biso   1.000  C
  C43      1.0000 0.02675  0.53889  0.40761  Biso   1.000  C
  C44      1.0000 0.40761  0.02675  0.02675  Biso   1.000  C
  C45      1.0000 0.46111  0.97325  0.97325  Biso   1.000  C
  C46      1.0000 0.97325  0.46111  0.59239  Biso   1.000  C
  C47      1.0000 0.59239  0.97325  0.97325  Biso   1.000  C
  C48      1.0000 0.97325  0.59239  0.46111  Biso   1.000  C
  C49      1.0000 0.97325  0.97325  0.59239  Biso   1.000  C
  C50      1.0000 0.59239  0.46111  0.97325  Biso   1.000  C
  C51      1.0000 0.97325  0.97325  0.46111  Biso   1.000  C
  C52      1.0000 0.46111  0.59239  0.97325  Biso   1.000  C
  C53      1.0000 0.59239  0.97325  0.46111  Biso   1.000  C
  C54      1.0000 0.97325  0.46111  0.97325  Biso   1.000  C
  C55      1.0000 0.46111  0.97325  0.59239  Biso   1.000  C
  C56      1.0000 0.97325  0.59239  0.97325  Biso   1.000  C
  C57      1.0000 0.11147  0.38853  0.11147  Biso   1.000  C
  C58      1.0000 0.05374  0.44626  0.05374  Biso   1.000  C
  C59      1.0000 0.38853  0.11147  0.38853  Biso   1.000  C
  C60      1.0000 0.44626  0.05374  0.44626  Biso   1.000  C
  C61      1.0000 0.11147  0.11147  0.38853  Biso   1.000  C
  C62      1.0000 0.05374  0.05374  0.44626  Biso   1.000  C
  C63      1.0000 0.38853  0.38853  0.11147  Biso   1.000  C
  C64      1.0000 0.44626  0.44626  0.05374  Biso   1.000  C
  C65      1.0000 0.11147  0.38853  0.38853  Biso   1.000  C
  C66      1.0000 0.05374  0.44626  0.44626  Biso   1.000  C
  C67      1.0000 0.38853  0.11147  0.11147  Biso   1.000  C
  C68      1.0000 0.44626  0.05374  0.05374  Biso   1.000  C
  C69      1.0000 0.61147  0.88853  0.88853  Biso   1.000  C
  C70      1.0000 0.55374  0.94626  0.94626  Biso   1.000  C
  C71      1.0000 0.88853  0.61147  0.61147  Biso   1.000  C
  C72      1.0000 0.94626  0.55374  0.55374  Biso   1.000  C
  C73      1.0000 0.88853  0.88853  0.61147  Biso   1.000  C
  C74      1.0000 0.94626  0.94626  0.55374  Biso   1.000  C
  C75      1.0000 0.61147  0.61147  0.88853  Biso   1.000  C
  C76      1.0000 0.55374  0.55374  0.94626  Biso   1.000  C
  C77      1.0000 0.61147  0.88853  0.61147  Biso   1.000  C
  C78      1.0000 0.55374  0.94626  0.55374  Biso   1.000  C
  C79      1.0000 0.88853  0.61147  0.88853  Biso   1.000  C
  C80      1.0000 0.94626  0.55374  0.94626  Biso   1.000  C
  C81      1.0000 0.25000  0.25000  0.25000  Biso   1.000  C
  C82      1.0000 0.75000  0.75000  0.75000  Biso   1.000  C
  C83      1.0000 0.13372  0.42764  0.13372  Biso   1.000  C
  C84      1.0000 0.42764  0.13372  0.30492  Biso   1.000  C
  C85      1.0000 0.13372  0.30492  0.13372  Biso   1.000  C
  C86      1.0000 0.30492  0.13372  0.42764  Biso   1.000  C
  C87      1.0000 0.13372  0.13372  0.30492  Biso   1.000  C
  C88      1.0000 0.42764  0.30492  0.13372  Biso   1.000  C
  C89      1.0000 0.13372  0.13372  0.42764  Biso   1.000  C
  C90      1.0000 0.30492  0.42764  0.13372  Biso   1.000  C
  C91      1.0000 0.13372  0.30492  0.42764  Biso   1.000  C
  C92      1.0000 0.42764  0.13372  0.13372  Biso   1.000  C
  C93      1.0000 0.13372  0.42764  0.30492  Biso   1.000  C
  C94      1.0000 0.30492  0.13372  0.13372  Biso   1.000  C
  C95      1.0000 0.57236  0.86628  0.86628  Biso   1.000  C
  C96      1.0000 0.86628  0.57236  0.69508  Biso   1.000  C
  C97      1.0000 0.69508  0.86628  0.86628  Biso   1.000  C
  C98      1.0000 0.86628  0.69508  0.57236  Biso   1.000  C
  C99      1.0000 0.86628  0.86628  0.69508  Biso   1.000  C
  C100     1.0000 0.69508  0.57236  0.86628  Biso   1.000  C
  C101     1.0000 0.86628  0.86628  0.57236  Biso   1.000  C
  C102     1.0000 0.57236  0.69508  0.86628  Biso   1.000  C
  C103     1.0000 0.69508  0.86628  0.57236  Biso   1.000  C
  C104     1.0000 0.86628  0.57236  0.86628  Biso   1.000  C
  C105     1.0000 0.57236  0.86628  0.69508  Biso   1.000  C
  C106     1.0000 0.86628  0.69508  0.86628  Biso   1.000  C
  O1       1.0000 0.00000  0.00000  0.00000  Biso   1.000  O
  O2       1.0000 0.00000  1.00000  0.17328  Biso   1.000  O
  O3       1.0000 0.82672  1.00000  0.17328  Biso   1.000  O
  O4       1.0000 1.00000  0.82672  0.17328  Biso   1.000  O
  O5       1.0000 0.41750  0.41752  0.76408  Biso   1.000  O
  O6       1.0000 0.41750  0.41752  0.59080  Biso   1.000  O
  O7       1.0000 0.41750  0.59080  0.59080  Biso   1.000  O
  O8       1.0000 0.59078  0.41752  0.59080  Biso   1.000  O
  O9       1.0000 0.86335  0.16048  0.81569  Biso   1.000  O
  O10      1.0000 0.16047  0.86336  0.33376  Biso   1.000  O
  O11      1.0000 0.64240  0.16048  0.03664  Biso   1.000  O
  O12      1.0000 0.16047  0.64241  0.33376  Biso   1.000  O
  O13      1.0000 0.86335  0.64241  0.33376  Biso   1.000  O
  O14      1.0000 0.16047  0.16048  0.81569  Biso   1.000  O
  O15      1.0000 0.64240  0.86336  0.33376  Biso   1.000  O
  O16      1.0000 0.16047  0.16048  0.03664  Biso   1.000  O
  O17      1.0000 0.86335  0.16048  0.33376  Biso   1.000  O
  O18      1.0000 0.16047  0.64241  0.03664  Biso   1.000  O
  O19      1.0000 0.64240  0.16048  0.33376  Biso   1.000  O
  O20      1.0000 0.16047  0.86336  0.81569  Biso   1.000  O
  O21      1.0000 0.25703  0.55415  0.94838  Biso   1.000  O
  O22      1.0000 0.55414  0.25704  0.43032  Biso   1.000  O
  O23      1.0000 0.25703  0.77510  0.72743  Biso   1.000  O
  O24      1.0000 0.77509  0.25704  0.43032  Biso   1.000  O
  O25      1.0000 0.77509  0.55415  0.43032  Biso   1.000  O
  O26      1.0000 0.25703  0.25704  0.94838  Biso   1.000  O
  O27      1.0000 0.55414  0.77510  0.43032  Biso   1.000  O
  O28      1.0000 0.25703  0.25704  0.72743  Biso   1.000  O
  O29      1.0000 0.25703  0.55415  0.43032  Biso   1.000  O
  O30      1.0000 0.77509  0.25704  0.72743  Biso   1.000  O
  O31      1.0000 0.25703  0.77510  0.43032  Biso   1.000  O
  O32      1.0000 0.55414  0.25704  0.94838  Biso   1.000  O
  O33      1.0000 0.80009  0.17879  0.84232  Biso   1.000  O
  O34      1.0000 0.17878  0.80010  0.35207  Biso   1.000  O
  O35      1.0000 0.66903  0.17879  0.97338  Biso   1.000  O
  O36      1.0000 0.17878  0.66904  0.35207  Biso   1.000  O
  O37      1.0000 0.80009  0.66904  0.35207  Biso   1.000  O
  O38      1.0000 0.17878  0.17879  0.84232  Biso   1.000  O
  O39      1.0000 0.66903  0.80010  0.35207  Biso   1.000  O
  O40      1.0000 0.17878  0.17879  0.97338  Biso   1.000  O
  O41      1.0000 0.80009  0.17879  0.35207  Biso   1.000  O
  O42      1.0000 0.17878  0.66904  0.97338  Biso   1.000  O
  O43      1.0000 0.66903  0.17879  0.35207  Biso   1.000  O
  O44      1.0000 0.17878  0.80010  0.84232  Biso   1.000  O
  O45      1.0000 0.23871  0.61741  0.92176  Biso   1.000  O
  O46      1.0000 0.61740  0.23872  0.41200  Biso   1.000  O
  O47      1.0000 0.23871  0.74848  0.79069  Biso   1.000  O
  O48      1.0000 0.74847  0.23872  0.41200  Biso   1.000  O
  O49      1.0000 0.74847  0.61741  0.41200  Biso   1.000  O
  O50      1.0000 0.23871  0.23872  0.92176  Biso   1.000  O
  O51      1.0000 0.61740  0.74848  0.41200  Biso   1.000  O
  O52      1.0000 0.23871  0.23872  0.79069  Biso   1.000  O
  O53      1.0000 0.23871  0.61741  0.41200  Biso   1.000  O
  O54      1.0000 0.74847  0.23872  0.79069  Biso   1.000  O
  O55      1.0000 0.23871  0.74848  0.41200  Biso   1.000  O
  O56      1.0000 0.61740  0.23872  0.92176  Biso   1.000  O
  O57      1.0000 0.76151  0.15185  0.93480  Biso   1.000  O
  O58      1.0000 0.81942  0.09393  0.99271  Biso   1.000  O
  O59      1.0000 0.15184  0.76152  0.32513  Biso   1.000  O
  O60      1.0000 0.09392  0.81943  0.26721  Biso   1.000  O
  O61      1.0000 0.76151  0.76152  0.32513  Biso   1.000  O
  O62      1.0000 0.81942  0.81943  0.26721  Biso   1.000  O
  O63      1.0000 0.15184  0.15185  0.93480  Biso   1.000  O
  O64      1.0000 0.09392  0.09393  0.99271  Biso   1.000  O
  O65      1.0000 0.76151  0.15185  0.32513  Biso   1.000  O
  O66      1.0000 0.81942  0.09393  0.26721  Biso   1.000  O
  O67      1.0000 0.15184  0.76152  0.93480  Biso   1.000  O
  O68      1.0000 0.09392  0.81943  0.99271  Biso   1.000  O
  O69      1.0000 0.26566  0.65600  0.82928  Biso   1.000  O
  O70      1.0000 0.32357  0.59809  0.77136  Biso   1.000  O
  O71      1.0000 0.65599  0.26567  0.43895  Biso   1.000  O
  O72      1.0000 0.59808  0.32358  0.49686  Biso   1.000  O
  O73      1.0000 0.65599  0.65600  0.43895  Biso   1.000  O
  O74      1.0000 0.59808  0.59809  0.49686  Biso   1.000  O
  O75      1.0000 0.26566  0.26567  0.82928  Biso   1.000  O
  O76      1.0000 0.32357  0.32358  0.77136  Biso   1.000  O
  O77      1.0000 0.26566  0.65600  0.43895  Biso   1.000  O
  O78      1.0000 0.32357  0.59809  0.49686  Biso   1.000  O
  O79      1.0000 0.65599  0.26567  0.82928  Biso   1.000  O
  O80      1.0000 0.59808  0.32358  0.77136  Biso   1.000  O
  O81      1.0000 0.95667  0.95668  0.12996  Biso   1.000  O
  O82      1.0000 0.46082  0.46083  0.63411  Biso   1.000  O
  O83      1.0000 0.90519  0.07207  0.95067  Biso   1.000  O
  O84      1.0000 0.07206  0.90520  0.24535  Biso   1.000  O
  O85      1.0000 0.77738  0.07207  0.07848  Biso   1.000  O
  O86      1.0000 0.07206  0.77739  0.24535  Biso   1.000  O
  O87      1.0000 0.90519  0.77739  0.24535  Biso   1.000  O
  O88      1.0000 0.07206  0.07207  0.95067  Biso   1.000  O
  O89      1.0000 0.77738  0.90520  0.24535  Biso   1.000  O
  O90      1.0000 0.07206  0.07207  0.07848  Biso   1.000  O
  O91      1.0000 0.90519  0.07207  0.24535  Biso   1.000  O
  O92      1.0000 0.07206  0.77739  0.07848  Biso   1.000  O
  O93      1.0000 0.77738  0.07207  0.24535  Biso   1.000  O
  O94      1.0000 0.07206  0.90520  0.95067  Biso   1.000  O
  O95      1.0000 0.34544  0.51231  0.81340  Biso   1.000  O
  O96      1.0000 0.51230  0.34545  0.51873  Biso   1.000  O
  O97      1.0000 0.34544  0.64012  0.68559  Biso   1.000  O
  O98      1.0000 0.64011  0.34545  0.51873  Biso   1.000  O
  O99      1.0000 0.64011  0.51231  0.51873  Biso   1.000  O
  O100     1.0000 0.34544  0.34545  0.81340  Biso   1.000  O
  O101     1.0000 0.51230  0.64012  0.51873  Biso   1.000  O
  O102     1.0000 0.34544  0.34545  0.68559  Biso   1.000  O
  O103     1.0000 0.34544  0.51231  0.51873  Biso   1.000  O
  O104     1.0000 0.64011  0.34545  0.68559  Biso   1.000  O
  O105     1.0000 0.34544  0.64012  0.51873  Biso   1.000  O
