data_image0
_cell_length_a       18.283
_cell_length_b       18.283
_cell_length_c       18.283
_cell_angle_alpha    60
_cell_angle_beta     60
_cell_angle_gamma    60

_symmetry_space_group_name_H-M    "P 1"
_symmetry_int_tables_number       1

loop_
  _symmetry_equiv_pos_as_xyz
  'x, y, z'

loop_
  _atom_site_label
  _atom_site_occupancy
  _atom_site_fract_x
  _atom_site_fract_y
  _atom_site_fract_z
  _atom_site_thermal_displace_type
  _atom_site_B_iso_or_equiv
  _atom_site_type_symbol
  C1       1.0000 0.20657  0.38031  0.20656  Biso   1.000  C
  C2       1.0000 0.38032  0.20656  0.20656  Biso   1.000  C
  C3       1.0000 0.20657  0.20656  0.20656  Biso   1.000  C
  C4       1.0000 0.20657  0.20656  0.38031  Biso   1.000  C
  C5       1.0000 0.61968  0.79344  0.79344  Biso   1.000  C
  C6       1.0000 0.79343  0.61969  0.79344  Biso   1.000  C
  C7       1.0000 0.79343  0.79344  0.79344  Biso   1.000  C
  C8       1.0000 0.79343  0.79344  0.61969  Biso   1.000  C
  C9       1.0000 0.04500  0.56540  0.04500  Biso   1.000  C
  C10      1.0000 0.56540  0.04500  0.34460  Biso   1.000  C
  C11      1.0000 0.04500  0.34460  0.04500  Biso   1.000  C
  C12      1.0000 0.34460  0.04500  0.56540  Biso   1.000  C
  C13      1.0000 0.04500  0.04500  0.34460  Biso   1.000  C
  C14      1.0000 0.56540  0.34460  0.04500  Biso   1.000  C
  C15      1.0000 0.04500  0.04500  0.56540  Biso   1.000  C
  C16      1.0000 0.34460  0.56540  0.04500  Biso   1.000  C
  C17      1.0000 0.04500  0.34460  0.56540  Biso   1.000  C
  C18      1.0000 0.56540  0.04500  0.04500  Biso   1.000  C
  C19      1.0000 0.04500  0.56540  0.34460  Biso   1.000  C
  C20      1.0000 0.34460  0.04500  0.04500  Biso   1.000  C
  C21      1.0000 0.43460  0.95500  0.95500  Biso   1.000  C
  C22      1.0000 0.95500  0.43460  0.65540  Biso   1.000  C
  C23      1.0000 0.65540  0.95500  0.95500  Biso   1.000  C
  C24      1.0000 0.95500  0.65540  0.43460  Biso   1.000  C
  C25      1.0000 0.95500  0.95500  0.65540  Biso   1.000  C
  C26      1.0000 0.65540  0.43460  0.95500  Biso   1.000  C
  C27      1.0000 0.95500  0.95500  0.43460  Biso   1.000  C
  C28      1.0000 0.43460  0.65540  0.95500  Biso   1.000  C
  C29      1.0000 0.65540  0.95500  0.43460  Biso   1.000  C
  C30      1.0000 0.95500  0.43460  0.95500  Biso   1.000  C
  C31      1.0000 0.43460  0.95500  0.65540  Biso   1.000  C
  C32      1.0000 0.95500  0.65540  0.95500  Biso   1.000  C
  C33      1.0000 0.02670  0.53864  0.02670  Biso   1.000  C
  C34      1.0000 0.53864  0.02670  0.40796  Biso   1.000  C
  C35      1.0000 0.02670  0.40796  0.02670  Biso   1.000  C
  C36      1.0000 0.40796  0.02670  0.53864  Biso   1.000  C
  C37      1.0000 0.02670  0.02670  0.40796  Biso   1.000  C
  C38      1.0000 0.53864  0.40796  0.02670  Biso   1.000  C
  C39      1.0000 0.02670  0.02670  0.53864  Biso   1.000  C
  C40      1.0000 0.40796  0.53864  0.02670  Biso   1.000  C
  C41      1.0000 0.02670  0.40796  0.53864  Biso   1.000  C
  C42      1.0000 0.53864  0.02670  0.02670  Biso   1.000  C
  C43      1.0000 0.02670  0.53864  0.40796  Biso   1.000  C
  C44      1.0000 0.40796  0.02670  0.02670  Biso   1.000  C
  C45      1.0000 0.46136  0.97330  0.97330  Biso   1.000  C
  C46      1.0000 0.97330  0.46136  0.59204  Biso   1.000  C
  C47      1.0000 0.59204  0.97330  0.97330  Biso   1.000  C
  C48      1.0000 0.97330  0.59204  0.46136  Biso   1.000  C
  C49      1.0000 0.97330  0.97330  0.59204  Biso   1.000  C
  C50      1.0000 0.59204  0.46136  0.97330  Biso   1.000  C
  C51      1.0000 0.97330  0.97330  0.46136  Biso   1.000  C
  C52      1.0000 0.46136  0.59204  0.97330  Biso   1.000  C
  C53      1.0000 0.59204  0.97330  0.46136  Biso   1.000  C
  C54      1.0000 0.97330  0.46136  0.97330  Biso   1.000  C
  C55      1.0000 0.46136  0.97330  0.59204  Biso   1.000  C
  C56      1.0000 0.97330  0.59204  0.97330  Biso   1.000  C
  C57      1.0000 0.11148  0.38852  0.11148  Biso   1.000  C
  C58      1.0000 0.05372  0.44628  0.05372  Biso   1.000  C
  C59      1.0000 0.38852  0.11148  0.38852  Biso   1.000  C
  C60      1.0000 0.44628  0.05372  0.44628  Biso   1.000  C
  C61      1.0000 0.11148  0.11148  0.38852  Biso   1.000  C
  C62      1.0000 0.05372  0.05372  0.44628  Biso   1.000  C
  C63      1.0000 0.38852  0.38852  0.11148  Biso   1.000  C
  C64      1.0000 0.44628  0.44628  0.05372  Biso   1.000  C
  C65      1.0000 0.11148  0.38852  0.38852  Biso   1.000  C
  C66      1.0000 0.05372  0.44628  0.44628  Biso   1.000  C
  C67      1.0000 0.38852  0.11148  0.11148  Biso   1.000  C
  C68      1.0000 0.44628  0.05372  0.05372  Biso   1.000  C
  C69      1.0000 0.61148  0.88852  0.88852  Biso   1.000  C
  C70      1.0000 0.55372  0.94628  0.94628  Biso   1.000  C
  C71      1.0000 0.88852  0.61148  0.61148  Biso   1.000  C
  C72      1.0000 0.94628  0.55372  0.55372  Biso   1.000  C
  C73      1.0000 0.88852  0.88852  0.61148  Biso   1.000  C
  C74      1.0000 0.94628  0.94628  0.55372  Biso   1.000  C
  C75      1.0000 0.61148  0.61148  0.88852  Biso   1.000  C
  C76      1.0000 0.55372  0.55372  0.94628  Biso   1.000  C
  C77      1.0000 0.61148  0.88852  0.61148  Biso   1.000  C
  C78      1.0000 0.55372  0.94628  0.55372  Biso   1.000  C
  C79      1.0000 0.88852  0.61148  0.88852  Biso   1.000  C
  C80      1.0000 0.94628  0.55372  0.94628  Biso   1.000  C
  C81      1.0000 0.25000  0.25000  0.25000  Biso   1.000  C
  C82      1.0000 0.75000  0.75000  0.75000  Biso   1.000  C
  C83      1.0000 0.13373  0.42751  0.13373  Biso   1.000  C
  C84      1.0000 0.42751  0.13373  0.30503  Biso   1.000  C
  C85      1.0000 0.13373  0.30503  0.13373  Biso   1.000  C
  C86      1.0000 0.30503  0.13373  0.42751  Biso   1.000  C
  C87      1.0000 0.13373  0.13373  0.30503  Biso   1.000  C
  C88      1.0000 0.42751  0.30503  0.13373  Biso   1.000  C
  C89      1.0000 0.13373  0.13373  0.42751  Biso   1.000  C
  C90      1.0000 0.30503  0.42751  0.13373  Biso   1.000  C
  C91      1.0000 0.13373  0.30503  0.42751  Biso   1.000  C
  C92      1.0000 0.42751  0.13373  0.13373  Biso   1.000  C
  C93      1.0000 0.13373  0.42751  0.30503  Biso   1.000  C
  C94      1.0000 0.30503  0.13373  0.13373  Biso   1.000  C
  C95      1.0000 0.57249  0.86627  0.86627  Biso   1.000  C
  C96      1.0000 0.86627  0.57249  0.69497  Biso   1.000  C
  C97      1.0000 0.69497  0.86627  0.86627  Biso   1.000  C
  C98      1.0000 0.86627  0.69497  0.57249  Biso   1.000  C
  C99      1.0000 0.86627  0.86627  0.69497  Biso   1.000  C
  C100     1.0000 0.69497  0.57249  0.86627  Biso   1.000  C
  C101     1.0000 0.86627  0.86627  0.57249  Biso   1.000  C
  C102     1.0000 0.57249  0.69497  0.86627  Biso   1.000  C
  C103     1.0000 0.69497  0.86627  0.57249  Biso   1.000  C
  C104     1.0000 0.86627  0.57249  0.86627  Biso   1.000  C
  C105     1.0000 0.57249  0.86627  0.69497  Biso   1.000  C
  C106     1.0000 0.86627  0.69497  0.86627  Biso   1.000  C
  O1       1.0000 0.00000  0.00000  0.00000  Biso   1.000  O
  O2       1.0000 0.41317  0.58669  0.41344  Biso   1.000  O
  O3       1.0000 0.41317  0.41211  0.41344  Biso   1.000  O
  O4       1.0000 1.00000  0.82542  0.00000  Biso   1.000  O
  O5       1.0000 0.99954  0.00034  0.82520  Biso   1.000  O
  O6       1.0000 0.82502  0.00015  0.00010  Biso   1.000  O
  O7       1.0000 0.41363  0.41177  0.58825  Biso   1.000  O
  O8       1.0000 0.58815  0.41196  0.41334  Biso   1.000  O
  O9       1.0000 0.16452  0.64440  0.85668  Biso   1.000  O
  O10      1.0000 0.15652  0.86055  0.64532  Biso   1.000  O
  O11      1.0000 0.86115  0.64549  0.15988  Biso   1.000  O
  O12      1.0000 0.64232  0.85802  0.16217  Biso   1.000  O
  O13      1.0000 0.16533  0.86002  0.15738  Biso   1.000  O
  O14      1.0000 0.24866  0.25228  0.55677  Biso   1.000  O
  O15      1.0000 0.25666  0.24908  0.76812  Biso   1.000  O
  O16      1.0000 0.55202  0.25320  0.25357  Biso   1.000  O
  O17      1.0000 0.77085  0.24921  0.25127  Biso   1.000  O
  O18      1.0000 0.24784  0.76942  0.25606  Biso   1.000  O
  O19      1.0000 0.24865  0.76771  0.55677  Biso   1.000  O
  O20      1.0000 0.25666  0.55157  0.76812  Biso   1.000  O
  O21      1.0000 0.55202  0.76663  0.25357  Biso   1.000  O
  O22      1.0000 0.77086  0.55409  0.25127  Biso   1.000  O
  O23      1.0000 0.24784  0.55209  0.25606  Biso   1.000  O
  O24      1.0000 0.16452  0.15983  0.85668  Biso   1.000  O
  O25      1.0000 0.15652  0.16303  0.64532  Biso   1.000  O
  O26      1.0000 0.86115  0.15891  0.15988  Biso   1.000  O
  O27      1.0000 0.64232  0.16290  0.16217  Biso   1.000  O
  O28      1.0000 0.16533  0.64269  0.15738  Biso   1.000  O
  O29      1.0000 0.64320  0.16172  0.85877  Biso   1.000  O
  O30      1.0000 0.85673  0.16283  0.64303  Biso   1.000  O
  O31      1.0000 0.76997  0.25039  0.55467  Biso   1.000  O
  O32      1.0000 0.55645  0.24928  0.77042  Biso   1.000  O
  O33      1.0000 0.09413  0.81691  0.82034  Biso   1.000  O
  O34      1.0000 0.15363  0.75891  0.75924  Biso   1.000  O
  O35      1.0000 0.18229  0.67006  0.79458  Biso   1.000  O
  O36      1.0000 0.17588  0.79855  0.67128  Biso   1.000  O
  O37      1.0000 0.81552  0.82009  0.09698  Biso   1.000  O
  O38      1.0000 0.76151  0.76169  0.15219  Biso   1.000  O
  O39      1.0000 0.79906  0.67164  0.17785  Biso   1.000  O
  O40      1.0000 0.66997  0.79613  0.17964  Biso   1.000  O
  O41      1.0000 0.18120  0.79802  0.17745  Biso   1.000  O
  O42      1.0000 0.31904  0.31807  0.59311  Biso   1.000  O
  O43      1.0000 0.25955  0.25847  0.65421  Biso   1.000  O
  O44      1.0000 0.23089  0.23361  0.61887  Biso   1.000  O
  O45      1.0000 0.23729  0.23241  0.74216  Biso   1.000  O
  O46      1.0000 0.59765  0.31928  0.31646  Biso   1.000  O
  O47      1.0000 0.65166  0.26208  0.26125  Biso   1.000  O
  O48      1.0000 0.61412  0.23523  0.23560  Biso   1.000  O
  O49      1.0000 0.74320  0.23244  0.23380  Biso   1.000  O
  O50      1.0000 0.23197  0.74337  0.23600  Biso   1.000  O
  O51      1.0000 0.31904  0.59520  0.59311  Biso   1.000  O
  O52      1.0000 0.25955  0.65320  0.65421  Biso   1.000  O
  O53      1.0000 0.23089  0.74205  0.61887  Biso   1.000  O
  O54      1.0000 0.23729  0.61356  0.74216  Biso   1.000  O
  O55      1.0000 0.59765  0.59202  0.31646  Biso   1.000  O
  O56      1.0000 0.65166  0.65042  0.26125  Biso   1.000  O
  O57      1.0000 0.61411  0.74047  0.23560  Biso   1.000  O
  O58      1.0000 0.74320  0.61598  0.23380  Biso   1.000  O
  O59      1.0000 0.23197  0.61409  0.23600  Biso   1.000  O
  O60      1.0000 0.09413  0.09404  0.82034  Biso   1.000  O
  O61      1.0000 0.15363  0.15364  0.75924  Biso   1.000  O
  O62      1.0000 0.18228  0.17850  0.79458  Biso   1.000  O
  O63      1.0000 0.17589  0.17970  0.67128  Biso   1.000  O
  O64      1.0000 0.81552  0.09283  0.09698  Biso   1.000  O
  O65      1.0000 0.76151  0.15003  0.15219  Biso   1.000  O
  O66      1.0000 0.79906  0.17688  0.17785  Biso   1.000  O
  O67      1.0000 0.66997  0.17968  0.17964  Biso   1.000  O
  O68      1.0000 0.18121  0.66874  0.17745  Biso   1.000  O
  O69      1.0000 0.82219  0.09484  0.81355  Biso   1.000  O
  O70      1.0000 0.76010  0.15194  0.76143  Biso   1.000  O
  O71      1.0000 0.67035  0.17910  0.79687  Biso   1.000  O
  O72      1.0000 0.79473  0.18030  0.67008  Biso   1.000  O
  O73      1.0000 0.09265  0.82189  0.08899  Biso   1.000  O
  O74      1.0000 0.15255  0.76029  0.15229  Biso   1.000  O
  O75      1.0000 0.59098  0.31727  0.59990  Biso   1.000  O
  O76      1.0000 0.65308  0.26017  0.65201  Biso   1.000  O
  O77      1.0000 0.74282  0.23301  0.61657  Biso   1.000  O
  O78      1.0000 0.61844  0.23181  0.74336  Biso   1.000  O
  O79      1.0000 0.32053  0.59022  0.32445  Biso   1.000  O
  O80      1.0000 0.26063  0.65182  0.26115  Biso   1.000  O
  O81      1.0000 0.07406  0.90217  0.77451  Biso   1.000  O
  O82      1.0000 0.07537  0.77308  0.90440  Biso   1.000  O
  O83      1.0000 0.77569  0.90315  0.07052  Biso   1.000  O
  O84      1.0000 0.90167  0.77607  0.07452  Biso   1.000  O
  O85      1.0000 0.07358  0.90415  0.07172  Biso   1.000  O
  O86      1.0000 0.33911  0.33744  0.63893  Biso   1.000  O
  O87      1.0000 0.33781  0.33954  0.50905  Biso   1.000  O
  O88      1.0000 0.63749  0.33605  0.34292  Biso   1.000  O
  O89      1.0000 0.51150  0.33895  0.33893  Biso   1.000  O
  O90      1.0000 0.33960  0.63614  0.34172  Biso   1.000  O
  O91      1.0000 0.33911  0.50994  0.63893  Biso   1.000  O
  O92      1.0000 0.33781  0.63903  0.50905  Biso   1.000  O
  O93      1.0000 0.63749  0.50896  0.34292  Biso   1.000  O
  O94      1.0000 0.51150  0.63604  0.33893  Biso   1.000  O
  O95      1.0000 0.33960  0.50796  0.34172  Biso   1.000  O
  O96      1.0000 0.07406  0.07467  0.77451  Biso   1.000  O
  O97      1.0000 0.07537  0.07257  0.90440  Biso   1.000  O
  O98      1.0000 0.77569  0.07606  0.07052  Biso   1.000  O
  O99      1.0000 0.90167  0.07316  0.07452  Biso   1.000  O
  O100     1.0000 0.07358  0.77597  0.07172  Biso   1.000  O
  O101     1.0000 0.95687  0.95627  0.95601  Biso   1.000  O
  O102     1.0000 0.90285  0.07368  0.77521  Biso   1.000  O
  O103     1.0000 0.77708  0.07597  0.89641  Biso   1.000  O
  O104     1.0000 0.45630  0.45584  0.45743  Biso   1.000  O
  O105     1.0000 0.51032  0.33843  0.63823  Biso   1.000  O
