data_image0
_cell_length_a       18.283
_cell_length_b       18.283
_cell_length_c       18.283
_cell_angle_alpha    60
_cell_angle_beta     60
_cell_angle_gamma    60

_symmetry_space_group_name_H-M    "P 1"
_symmetry_int_tables_number       1

loop_
  _symmetry_equiv_pos_as_xyz
  'x, y, z'

loop_
  _atom_site_label
  _atom_site_occupancy
  _atom_site_fract_x
  _atom_site_fract_y
  _atom_site_fract_z
  _atom_site_thermal_displace_type
  _atom_site_B_iso_or_equiv
  _atom_site_type_symbol
  C1       1.0000 0.20657  0.38031  0.20656  Biso   1.000  C
  C2       1.0000 0.38032  0.20656  0.20656  Biso   1.000  C
  C3       1.0000 0.20657  0.20656  0.20656  Biso   1.000  C
  C4       1.0000 0.20657  0.20656  0.38031  Biso   1.000  C
  C5       1.0000 0.61968  0.79344  0.79344  Biso   1.000  C
  C6       1.0000 0.79343  0.61969  0.79344  Biso   1.000  C
  C7       1.0000 0.79343  0.79344  0.79344  Biso   1.000  C
  C8       1.0000 0.79343  0.79344  0.61969  Biso   1.000  C
  C9       1.0000 0.04500  0.56540  0.04500  Biso   1.000  C
  C10      1.0000 0.56540  0.04500  0.34460  Biso   1.000  C
  C11      1.0000 0.04500  0.34460  0.04500  Biso   1.000  C
  C12      1.0000 0.34460  0.04500  0.56540  Biso   1.000  C
  C13      1.0000 0.04500  0.04500  0.34460  Biso   1.000  C
  C14      1.0000 0.56540  0.34460  0.04500  Biso   1.000  C
  C15      1.0000 0.04500  0.04500  0.56540  Biso   1.000  C
  C16      1.0000 0.34460  0.56540  0.04500  Biso   1.000  C
  C17      1.0000 0.04500  0.34460  0.56540  Biso   1.000  C
  C18      1.0000 0.56540  0.04500  0.04500  Biso   1.000  C
  C19      1.0000 0.04500  0.56540  0.34460  Biso   1.000  C
  C20      1.0000 0.34460  0.04500  0.04500  Biso   1.000  C
  C21      1.0000 0.43460  0.95500  0.95500  Biso   1.000  C
  C22      1.0000 0.95500  0.43460  0.65540  Biso   1.000  C
  C23      1.0000 0.65540  0.95500  0.95500  Biso   1.000  C
  C24      1.0000 0.95500  0.65540  0.43460  Biso   1.000  C
  C25      1.0000 0.95500  0.95500  0.65540  Biso   1.000  C
  C26      1.0000 0.65540  0.43460  0.95500  Biso   1.000  C
  C27      1.0000 0.95500  0.95500  0.43460  Biso   1.000  C
  C28      1.0000 0.43460  0.65540  0.95500  Biso   1.000  C
  C29      1.0000 0.65540  0.95500  0.43460  Biso   1.000  C
  C30      1.0000 0.95500  0.43460  0.95500  Biso   1.000  C
  C31      1.0000 0.43460  0.95500  0.65540  Biso   1.000  C
  C32      1.0000 0.95500  0.65540  0.95500  Biso   1.000  C
  C33      1.0000 0.02670  0.53864  0.02670  Biso   1.000  C
  C34      1.0000 0.53864  0.02670  0.40796  Biso   1.000  C
  C35      1.0000 0.02670  0.40796  0.02670  Biso   1.000  C
  C36      1.0000 0.40796  0.02670  0.53864  Biso   1.000  C
  C37      1.0000 0.02670  0.02670  0.40796  Biso   1.000  C
  C38      1.0000 0.53864  0.40796  0.02670  Biso   1.000  C
  C39      1.0000 0.02670  0.02670  0.53864  Biso   1.000  C
  C40      1.0000 0.40796  0.53864  0.02670  Biso   1.000  C
  C41      1.0000 0.02670  0.40796  0.53864  Biso   1.000  C
  C42      1.0000 0.53864  0.02670  0.02670  Biso   1.000  C
  C43      1.0000 0.02670  0.53864  0.40796  Biso   1.000  C
  C44      1.0000 0.40796  0.02670  0.02670  Biso   1.000  C
  C45      1.0000 0.46136  0.97330  0.97330  Biso   1.000  C
  C46      1.0000 0.97330  0.46136  0.59204  Biso   1.000  C
  C47      1.0000 0.59204  0.97330  0.97330  Biso   1.000  C
  C48      1.0000 0.97330  0.59204  0.46136  Biso   1.000  C
  C49      1.0000 0.97330  0.97330  0.59204  Biso   1.000  C
  C50      1.0000 0.59204  0.46136  0.97330  Biso   1.000  C
  C51      1.0000 0.97330  0.97330  0.46136  Biso   1.000  C
  C52      1.0000 0.46136  0.59204  0.97330  Biso   1.000  C
  C53      1.0000 0.59204  0.97330  0.46136  Biso   1.000  C
  C54      1.0000 0.97330  0.46136  0.97330  Biso   1.000  C
  C55      1.0000 0.46136  0.97330  0.59204  Biso   1.000  C
  C56      1.0000 0.97330  0.59204  0.97330  Biso   1.000  C
  C57      1.0000 0.11148  0.38852  0.11148  Biso   1.000  C
  C58      1.0000 0.05372  0.44628  0.05372  Biso   1.000  C
  C59      1.0000 0.38852  0.11148  0.38852  Biso   1.000  C
  C60      1.0000 0.44628  0.05372  0.44628  Biso   1.000  C
  C61      1.0000 0.11148  0.11148  0.38852  Biso   1.000  C
  C62      1.0000 0.05372  0.05372  0.44628  Biso   1.000  C
  C63      1.0000 0.38852  0.38852  0.11148  Biso   1.000  C
  C64      1.0000 0.44628  0.44628  0.05372  Biso   1.000  C
  C65      1.0000 0.11148  0.38852  0.38852  Biso   1.000  C
  C66      1.0000 0.05372  0.44628  0.44628  Biso   1.000  C
  C67      1.0000 0.38852  0.11148  0.11148  Biso   1.000  C
  C68      1.0000 0.44628  0.05372  0.05372  Biso   1.000  C
  C69      1.0000 0.61148  0.88852  0.88852  Biso   1.000  C
  C70      1.0000 0.55372  0.94628  0.94628  Biso   1.000  C
  C71      1.0000 0.88852  0.61148  0.61148  Biso   1.000  C
  C72      1.0000 0.94628  0.55372  0.55372  Biso   1.000  C
  C73      1.0000 0.88852  0.88852  0.61148  Biso   1.000  C
  C74      1.0000 0.94628  0.94628  0.55372  Biso   1.000  C
  C75      1.0000 0.61148  0.61148  0.88852  Biso   1.000  C
  C76      1.0000 0.55372  0.55372  0.94628  Biso   1.000  C
  C77      1.0000 0.61148  0.88852  0.61148  Biso   1.000  C
  C78      1.0000 0.55372  0.94628  0.55372  Biso   1.000  C
  C79      1.0000 0.88852  0.61148  0.88852  Biso   1.000  C
  C80      1.0000 0.94628  0.55372  0.94628  Biso   1.000  C
  C81      1.0000 0.25000  0.25000  0.25000  Biso   1.000  C
  C82      1.0000 0.75000  0.75000  0.75000  Biso   1.000  C
  C83      1.0000 0.13373  0.42751  0.13373  Biso   1.000  C
  C84      1.0000 0.42751  0.13373  0.30503  Biso   1.000  C
  C85      1.0000 0.13373  0.30503  0.13373  Biso   1.000  C
  C86      1.0000 0.30503  0.13373  0.42751  Biso   1.000  C
  C87      1.0000 0.13373  0.13373  0.30503  Biso   1.000  C
  C88      1.0000 0.42751  0.30503  0.13373  Biso   1.000  C
  C89      1.0000 0.13373  0.13373  0.42751  Biso   1.000  C
  C90      1.0000 0.30503  0.42751  0.13373  Biso   1.000  C
  C91      1.0000 0.13373  0.30503  0.42751  Biso   1.000  C
  C92      1.0000 0.42751  0.13373  0.13373  Biso   1.000  C
  C93      1.0000 0.13373  0.42751  0.30503  Biso   1.000  C
  C94      1.0000 0.30503  0.13373  0.13373  Biso   1.000  C
  C95      1.0000 0.57249  0.86627  0.86627  Biso   1.000  C
  C96      1.0000 0.86627  0.57249  0.69497  Biso   1.000  C
  C97      1.0000 0.69497  0.86627  0.86627  Biso   1.000  C
  C98      1.0000 0.86627  0.69497  0.57249  Biso   1.000  C
  C99      1.0000 0.86627  0.86627  0.69497  Biso   1.000  C
  C100     1.0000 0.69497  0.57249  0.86627  Biso   1.000  C
  C101     1.0000 0.86627  0.86627  0.57249  Biso   1.000  C
  C102     1.0000 0.57249  0.69497  0.86627  Biso   1.000  C
  C103     1.0000 0.69497  0.86627  0.57249  Biso   1.000  C
  C104     1.0000 0.86627  0.57249  0.86627  Biso   1.000  C
  C105     1.0000 0.57249  0.86627  0.69497  Biso   1.000  C
  C106     1.0000 0.86627  0.69497  0.86627  Biso   1.000  C
  O1       1.0000 0.00000  0.00000  0.00000  Biso   1.000  O
  O2       1.0000 0.00001  0.99999  0.17389  Biso   1.000  O
  O3       1.0000 0.82612  0.00000  0.17388  Biso   1.000  O
  O4       1.0000 0.00001  0.82611  0.17389  Biso   1.000  O
  O5       1.0000 0.41357  0.41357  0.76134  Biso   1.000  O
  O6       1.0000 0.41357  0.41357  0.58745  Biso   1.000  O
  O7       1.0000 0.41358  0.58745  0.58745  Biso   1.000  O
  O8       1.0000 0.58747  0.41356  0.58745  Biso   1.000  O
  O9       1.0000 0.16185  0.16184  0.81581  Biso   1.000  O
  O10      1.0000 0.16185  0.16184  0.03542  Biso   1.000  O
  O11      1.0000 0.64194  0.86153  0.33572  Biso   1.000  O
  O12      1.0000 0.86154  0.64193  0.33572  Biso   1.000  O
  O13      1.0000 0.16185  0.64193  0.03542  Biso   1.000  O
  O14      1.0000 0.16185  0.86153  0.81581  Biso   1.000  O
  O15      1.0000 0.64194  0.16184  0.33572  Biso   1.000  O
  O16      1.0000 0.86154  0.16184  0.33572  Biso   1.000  O
  O17      1.0000 0.16185  0.86153  0.33572  Biso   1.000  O
  O18      1.0000 0.16185  0.64193  0.33572  Biso   1.000  O
  O19      1.0000 0.64194  0.16184  0.03542  Biso   1.000  O
  O20      1.0000 0.86154  0.16184  0.81581  Biso   1.000  O
  O21      1.0000 0.25174  0.25173  0.94552  Biso   1.000  O
  O22      1.0000 0.25174  0.25173  0.72592  Biso   1.000  O
  O23      1.0000 0.55204  0.77164  0.42561  Biso   1.000  O
  O24      1.0000 0.77165  0.55203  0.42561  Biso   1.000  O
  O25      1.0000 0.77165  0.25173  0.72592  Biso   1.000  O
  O26      1.0000 0.55204  0.25173  0.94552  Biso   1.000  O
  O27      1.0000 0.25174  0.77164  0.42561  Biso   1.000  O
  O28      1.0000 0.25174  0.55203  0.42561  Biso   1.000  O
  O29      1.0000 0.55204  0.25173  0.42561  Biso   1.000  O
  O30      1.0000 0.77165  0.25173  0.42561  Biso   1.000  O
  O31      1.0000 0.25174  0.77164  0.72592  Biso   1.000  O
  O32      1.0000 0.25174  0.55203  0.94552  Biso   1.000  O
  O33      1.0000 0.18010  0.18009  0.84270  Biso   1.000  O
  O34      1.0000 0.18010  0.18009  0.97201  Biso   1.000  O
  O35      1.0000 0.66882  0.79812  0.35398  Biso   1.000  O
  O36      1.0000 0.79813  0.66881  0.35398  Biso   1.000  O
  O37      1.0000 0.18010  0.66881  0.97201  Biso   1.000  O
  O38      1.0000 0.18010  0.79812  0.84270  Biso   1.000  O
  O39      1.0000 0.66882  0.18009  0.35398  Biso   1.000  O
  O40      1.0000 0.79813  0.18009  0.35398  Biso   1.000  O
  O41      1.0000 0.18010  0.79812  0.35398  Biso   1.000  O
  O42      1.0000 0.18010  0.66881  0.35398  Biso   1.000  O
  O43      1.0000 0.66882  0.18009  0.97201  Biso   1.000  O
  O44      1.0000 0.79813  0.18009  0.84270  Biso   1.000  O
  O45      1.0000 0.23348  0.23347  0.91864  Biso   1.000  O
  O46      1.0000 0.23348  0.23347  0.78933  Biso   1.000  O
  O47      1.0000 0.61545  0.74475  0.40736  Biso   1.000  O
  O48      1.0000 0.74476  0.61544  0.40736  Biso   1.000  O
  O49      1.0000 0.74476  0.23347  0.78933  Biso   1.000  O
  O50      1.0000 0.61545  0.23347  0.91864  Biso   1.000  O
  O51      1.0000 0.23348  0.74475  0.40736  Biso   1.000  O
  O52      1.0000 0.23348  0.61544  0.40736  Biso   1.000  O
  O53      1.0000 0.61545  0.23347  0.40736  Biso   1.000  O
  O54      1.0000 0.74476  0.23347  0.40736  Biso   1.000  O
  O55      1.0000 0.23348  0.74475  0.78933  Biso   1.000  O
  O56      1.0000 0.23348  0.61544  0.91864  Biso   1.000  O
  O57      1.0000 0.09511  0.09510  0.99184  Biso   1.000  O
  O58      1.0000 0.15316  0.15315  0.93379  Biso   1.000  O
  O59      1.0000 0.81796  0.81795  0.26898  Biso   1.000  O
  O60      1.0000 0.75991  0.75990  0.32703  Biso   1.000  O
  O61      1.0000 0.09511  0.81795  0.99184  Biso   1.000  O
  O62      1.0000 0.15316  0.75990  0.93379  Biso   1.000  O
  O63      1.0000 0.81796  0.09510  0.26898  Biso   1.000  O
  O64      1.0000 0.75991  0.15315  0.32703  Biso   1.000  O
  O65      1.0000 0.09511  0.81795  0.26898  Biso   1.000  O
  O66      1.0000 0.15316  0.75990  0.32703  Biso   1.000  O
  O67      1.0000 0.81796  0.09510  0.99184  Biso   1.000  O
  O68      1.0000 0.75991  0.15315  0.93379  Biso   1.000  O
  O69      1.0000 0.31848  0.31847  0.76950  Biso   1.000  O
  O70      1.0000 0.26043  0.26042  0.82755  Biso   1.000  O
  O71      1.0000 0.59562  0.59561  0.49235  Biso   1.000  O
  O72      1.0000 0.65367  0.65366  0.43430  Biso   1.000  O
  O73      1.0000 0.59562  0.31847  0.76950  Biso   1.000  O
  O74      1.0000 0.65367  0.26042  0.82755  Biso   1.000  O
  O75      1.0000 0.31848  0.59561  0.49235  Biso   1.000  O
  O76      1.0000 0.26043  0.65366  0.43430  Biso   1.000  O
  O77      1.0000 0.59562  0.31847  0.49235  Biso   1.000  O
  O78      1.0000 0.65367  0.26042  0.43430  Biso   1.000  O
  O79      1.0000 0.31848  0.59561  0.76950  Biso   1.000  O
  O80      1.0000 0.26043  0.65366  0.82755  Biso   1.000  O
  O81      1.0000 0.95654  0.95653  0.13041  Biso   1.000  O
  O82      1.0000 0.45705  0.45704  0.63092  Biso   1.000  O
  O83      1.0000 0.07274  0.07273  0.95318  Biso   1.000  O
  O84      1.0000 0.07274  0.07273  0.07523  Biso   1.000  O
  O85      1.0000 0.77930  0.90134  0.24662  Biso   1.000  O
  O86      1.0000 0.90135  0.77929  0.24662  Biso   1.000  O
  O87      1.0000 0.07274  0.77929  0.07523  Biso   1.000  O
  O88      1.0000 0.07274  0.90134  0.95318  Biso   1.000  O
  O89      1.0000 0.77930  0.07273  0.24662  Biso   1.000  O
  O90      1.0000 0.90135  0.07273  0.24662  Biso   1.000  O
  O91      1.0000 0.07274  0.90134  0.24662  Biso   1.000  O
  O92      1.0000 0.07274  0.77929  0.24662  Biso   1.000  O
  O93      1.0000 0.77930  0.07273  0.07523  Biso   1.000  O
  O94      1.0000 0.90135  0.07273  0.95318  Biso   1.000  O
  O95      1.0000 0.34084  0.34083  0.80816  Biso   1.000  O
  O96      1.0000 0.34084  0.34083  0.68611  Biso   1.000  O
  O97      1.0000 0.51223  0.63427  0.51472  Biso   1.000  O
  O98      1.0000 0.63428  0.51222  0.51472  Biso   1.000  O
  O99      1.0000 0.63428  0.34083  0.68611  Biso   1.000  O
  O100     1.0000 0.51223  0.34083  0.80816  Biso   1.000  O
  O101     1.0000 0.34084  0.63427  0.51472  Biso   1.000  O
  O102     1.0000 0.34084  0.51222  0.51472  Biso   1.000  O
  O103     1.0000 0.51223  0.34083  0.51472  Biso   1.000  O
  O104     1.0000 0.63428  0.34083  0.51472  Biso   1.000  O
  O105     1.0000 0.34084  0.63427  0.68611  Biso   1.000  O
