data_image0
_cell_length_a       18.3063
_cell_length_b       18.3063
_cell_length_c       18.3063
_cell_angle_alpha    60
_cell_angle_beta     60
_cell_angle_gamma    60

_symmetry_space_group_name_H-M    "P 1"
_symmetry_int_tables_number       1

loop_
  _symmetry_equiv_pos_as_xyz
  'x, y, z'

loop_
  _atom_site_label
  _atom_site_occupancy
  _atom_site_fract_x
  _atom_site_fract_y
  _atom_site_fract_z
  _atom_site_thermal_displace_type
  _atom_site_B_iso_or_equiv
  _atom_site_type_symbol
  C1       1.0000 0.20664  0.38006  0.20665  Biso   1.000  C
  C2       1.0000 0.38005  0.20665  0.20665  Biso   1.000  C
  C3       1.0000 0.20664  0.20665  0.20665  Biso   1.000  C
  C4       1.0000 0.20664  0.20665  0.38006  Biso   1.000  C
  C5       1.0000 0.61995  0.79335  0.79335  Biso   1.000  C
  C6       1.0000 0.79336  0.61994  0.79335  Biso   1.000  C
  C7       1.0000 0.79336  0.79335  0.79335  Biso   1.000  C
  C8       1.0000 0.79336  0.79335  0.61994  Biso   1.000  C
  C9       1.0000 0.04520  0.56560  0.04520  Biso   1.000  C
  C10      1.0000 0.56560  0.04520  0.34400  Biso   1.000  C
  C11      1.0000 0.04520  0.34400  0.04520  Biso   1.000  C
  C12      1.0000 0.34400  0.04520  0.56560  Biso   1.000  C
  C13      1.0000 0.04520  0.04520  0.34400  Biso   1.000  C
  C14      1.0000 0.56560  0.34400  0.04520  Biso   1.000  C
  C15      1.0000 0.04520  0.04520  0.56560  Biso   1.000  C
  C16      1.0000 0.34400  0.56560  0.04520  Biso   1.000  C
  C17      1.0000 0.04520  0.34400  0.56560  Biso   1.000  C
  C18      1.0000 0.56560  0.04520  0.04520  Biso   1.000  C
  C19      1.0000 0.04520  0.56560  0.34400  Biso   1.000  C
  C20      1.0000 0.34400  0.04520  0.04520  Biso   1.000  C
  C21      1.0000 0.43440  0.95480  0.95480  Biso   1.000  C
  C22      1.0000 0.95480  0.43440  0.65600  Biso   1.000  C
  C23      1.0000 0.65600  0.95480  0.95480  Biso   1.000  C
  C24      1.0000 0.95480  0.65600  0.43440  Biso   1.000  C
  C25      1.0000 0.95480  0.95480  0.65600  Biso   1.000  C
  C26      1.0000 0.65600  0.43440  0.95480  Biso   1.000  C
  C27      1.0000 0.95480  0.95480  0.43440  Biso   1.000  C
  C28      1.0000 0.43440  0.65600  0.95480  Biso   1.000  C
  C29      1.0000 0.65600  0.95480  0.43440  Biso   1.000  C
  C30      1.0000 0.95480  0.43440  0.95480  Biso   1.000  C
  C31      1.0000 0.43440  0.95480  0.65600  Biso   1.000  C
  C32      1.0000 0.95480  0.65600  0.95480  Biso   1.000  C
  C33      1.0000 0.02683  0.53905  0.02683  Biso   1.000  C
  C34      1.0000 0.53905  0.02683  0.40729  Biso   1.000  C
  C35      1.0000 0.02683  0.40729  0.02683  Biso   1.000  C
  C36      1.0000 0.40729  0.02683  0.53905  Biso   1.000  C
  C37      1.0000 0.02683  0.02683  0.40729  Biso   1.000  C
  C38      1.0000 0.53905  0.40729  0.02683  Biso   1.000  C
  C39      1.0000 0.02683  0.02683  0.53905  Biso   1.000  C
  C40      1.0000 0.40729  0.53905  0.02683  Biso   1.000  C
  C41      1.0000 0.02683  0.40729  0.53905  Biso   1.000  C
  C42      1.0000 0.53905  0.02683  0.02683  Biso   1.000  C
  C43      1.0000 0.02683  0.53905  0.40729  Biso   1.000  C
  C44      1.0000 0.40729  0.02683  0.02683  Biso   1.000  C
  C45      1.0000 0.46095  0.97317  0.97317  Biso   1.000  C
  C46      1.0000 0.97317  0.46095  0.59271  Biso   1.000  C
  C47      1.0000 0.59271  0.97317  0.97317  Biso   1.000  C
  C48      1.0000 0.97317  0.59271  0.46095  Biso   1.000  C
  C49      1.0000 0.97317  0.97317  0.59271  Biso   1.000  C
  C50      1.0000 0.59271  0.46095  0.97317  Biso   1.000  C
  C51      1.0000 0.97317  0.97317  0.46095  Biso   1.000  C
  C52      1.0000 0.46095  0.59271  0.97317  Biso   1.000  C
  C53      1.0000 0.59271  0.97317  0.46095  Biso   1.000  C
  C54      1.0000 0.97317  0.46095  0.97317  Biso   1.000  C
  C55      1.0000 0.46095  0.97317  0.59271  Biso   1.000  C
  C56      1.0000 0.97317  0.59271  0.97317  Biso   1.000  C
  C57      1.0000 0.11144  0.38856  0.11144  Biso   1.000  C
  C58      1.0000 0.05381  0.44619  0.05381  Biso   1.000  C
  C59      1.0000 0.38856  0.11144  0.38856  Biso   1.000  C
  C60      1.0000 0.44619  0.05381  0.44619  Biso   1.000  C
  C61      1.0000 0.11144  0.11144  0.38856  Biso   1.000  C
  C62      1.0000 0.05381  0.05381  0.44619  Biso   1.000  C
  C63      1.0000 0.38856  0.38856  0.11144  Biso   1.000  C
  C64      1.0000 0.44619  0.44619  0.05381  Biso   1.000  C
  C65      1.0000 0.11144  0.38856  0.38856  Biso   1.000  C
  C66      1.0000 0.05381  0.44619  0.44619  Biso   1.000  C
  C67      1.0000 0.38856  0.11144  0.11144  Biso   1.000  C
  C68      1.0000 0.44619  0.05381  0.05381  Biso   1.000  C
  C69      1.0000 0.61144  0.88856  0.88856  Biso   1.000  C
  C70      1.0000 0.55381  0.94619  0.94619  Biso   1.000  C
  C71      1.0000 0.88856  0.61144  0.61144  Biso   1.000  C
  C72      1.0000 0.94619  0.55381  0.55381  Biso   1.000  C
  C73      1.0000 0.88856  0.88856  0.61144  Biso   1.000  C
  C74      1.0000 0.94619  0.94619  0.55381  Biso   1.000  C
  C75      1.0000 0.61144  0.61144  0.88856  Biso   1.000  C
  C76      1.0000 0.55381  0.55381  0.94619  Biso   1.000  C
  C77      1.0000 0.61144  0.88856  0.61144  Biso   1.000  C
  C78      1.0000 0.55381  0.94619  0.55381  Biso   1.000  C
  C79      1.0000 0.88856  0.61144  0.88856  Biso   1.000  C
  C80      1.0000 0.94619  0.55381  0.94619  Biso   1.000  C
  C81      1.0000 0.25000  0.25000  0.25000  Biso   1.000  C
  C82      1.0000 0.75000  0.75000  0.75000  Biso   1.000  C
  C83      1.0000 0.13368  0.42768  0.13368  Biso   1.000  C
  C84      1.0000 0.42768  0.13368  0.30496  Biso   1.000  C
  C85      1.0000 0.13368  0.30496  0.13368  Biso   1.000  C
  C86      1.0000 0.30496  0.13368  0.42768  Biso   1.000  C
  C87      1.0000 0.13368  0.13368  0.30496  Biso   1.000  C
  C88      1.0000 0.42768  0.30496  0.13368  Biso   1.000  C
  C89      1.0000 0.13368  0.13368  0.42768  Biso   1.000  C
  C90      1.0000 0.30496  0.42768  0.13368  Biso   1.000  C
  C91      1.0000 0.13368  0.30496  0.42768  Biso   1.000  C
  C92      1.0000 0.42768  0.13368  0.13368  Biso   1.000  C
  C93      1.0000 0.13368  0.42768  0.30496  Biso   1.000  C
  C94      1.0000 0.30496  0.13368  0.13368  Biso   1.000  C
  C95      1.0000 0.57232  0.86632  0.86632  Biso   1.000  C
  C96      1.0000 0.86632  0.57232  0.69504  Biso   1.000  C
  C97      1.0000 0.69504  0.86632  0.86632  Biso   1.000  C
  C98      1.0000 0.86632  0.69504  0.57232  Biso   1.000  C
  C99      1.0000 0.86632  0.86632  0.69504  Biso   1.000  C
  C100     1.0000 0.69504  0.57232  0.86632  Biso   1.000  C
  C101     1.0000 0.86632  0.86632  0.57232  Biso   1.000  C
  C102     1.0000 0.57232  0.69504  0.86632  Biso   1.000  C
  C103     1.0000 0.69504  0.86632  0.57232  Biso   1.000  C
  C104     1.0000 0.86632  0.57232  0.86632  Biso   1.000  C
  C105     1.0000 0.57232  0.86632  0.69504  Biso   1.000  C
  C106     1.0000 0.86632  0.69504  0.86632  Biso   1.000  C
  O1       1.0000 0.99123  0.97162  0.86974  Biso   1.000  O
  O2       1.0000 0.99128  0.14343  0.86969  Biso   1.000  O
  O3       1.0000 0.16309  0.97162  0.86974  Biso   1.000  O
  O4       1.0000 0.99128  0.97157  0.04155  Biso   1.000  O
  O5       1.0000 0.57295  0.56176  0.45989  Biso   1.000  O
  O6       1.0000 0.57290  0.38995  0.45994  Biso   1.000  O
  O7       1.0000 0.40109  0.56176  0.45989  Biso   1.000  O
  O8       1.0000 0.57290  0.56181  0.28808  Biso   1.000  O
  O9       1.0000 0.81234  0.17080  0.69179  Biso   1.000  O
  O10      1.0000 0.19068  0.79346  0.68980  Biso   1.000  O
  O11      1.0000 0.81174  0.79446  0.06893  Biso   1.000  O
  O12      1.0000 0.81335  0.30962  0.69080  Biso   1.000  O
  O13      1.0000 0.81135  0.31062  0.06913  Biso   1.000  O
  O14      1.0000 0.19049  0.30943  0.69020  Biso   1.000  O
  O15      1.0000 0.32074  0.79367  0.06892  Biso   1.000  O
  O16      1.0000 0.32175  0.79168  0.69158  Biso   1.000  O
  O17      1.0000 0.32055  0.17081  0.69258  Biso   1.000  O
  O18      1.0000 0.18193  0.79268  0.20774  Biso   1.000  O
  O19      1.0000 0.80458  0.17101  0.20875  Biso   1.000  O
  O20      1.0000 0.80558  0.79207  0.20756  Biso   1.000  O
  O21      1.0000 0.75184  0.36258  0.63784  Biso   1.000  O
  O22      1.0000 0.37350  0.73992  0.63983  Biso   1.000  O
  O23      1.0000 0.75244  0.73893  0.26070  Biso   1.000  O
  O24      1.0000 0.75083  0.22377  0.63883  Biso   1.000  O
  O25      1.0000 0.75282  0.22276  0.26050  Biso   1.000  O
  O26      1.0000 0.37369  0.22396  0.63943  Biso   1.000  O
  O27      1.0000 0.24343  0.73971  0.26071  Biso   1.000  O
  O28      1.0000 0.24243  0.74171  0.63805  Biso   1.000  O
  O29      1.0000 0.24363  0.36257  0.63705  Biso   1.000  O
  O30      1.0000 0.38225  0.74071  0.12188  Biso   1.000  O
  O31      1.0000 0.75960  0.36238  0.12088  Biso   1.000  O
  O32      1.0000 0.75860  0.74132  0.12207  Biso   1.000  O
  O33      1.0000 0.83969  0.20909  0.71815  Biso   1.000  O
  O34      1.0000 0.89787  0.15091  0.77633  Biso   1.000  O
  O35      1.0000 0.22875  0.82004  0.10720  Biso   1.000  O
  O36      1.0000 0.17057  0.87822  0.04902  Biso   1.000  O
  O37      1.0000 0.72449  0.32430  0.61147  Biso   1.000  O
  O38      1.0000 0.66631  0.38248  0.55330  Biso   1.000  O
  O39      1.0000 0.33543  0.71335  0.22243  Biso   1.000  O
  O40      1.0000 0.39361  0.65517  0.28061  Biso   1.000  O
  O41      1.0000 0.83950  0.81984  0.10740  Biso   1.000  O
  O42      1.0000 0.89740  0.87774  0.04950  Biso   1.000  O
  O43      1.0000 0.22894  0.20928  0.71796  Biso   1.000  O
  O44      1.0000 0.17104  0.15138  0.77586  Biso   1.000  O
  O45      1.0000 0.72468  0.71355  0.22223  Biso   1.000  O
  O46      1.0000 0.66678  0.65565  0.28013  Biso   1.000  O
  O47      1.0000 0.33524  0.32410  0.61167  Biso   1.000  O
  O48      1.0000 0.39314  0.38200  0.55377  Biso   1.000  O
  O49      1.0000 0.22914  0.81964  0.71776  Biso   1.000  O
  O50      1.0000 0.17124  0.87754  0.77566  Biso   1.000  O
  O51      1.0000 0.83929  0.20949  0.10760  Biso   1.000  O
  O52      1.0000 0.89720  0.15158  0.04970  Biso   1.000  O
  O53      1.0000 0.33503  0.71375  0.61187  Biso   1.000  O
  O54      1.0000 0.39294  0.65585  0.55397  Biso   1.000  O
  O55      1.0000 0.72488  0.32390  0.22203  Biso   1.000  O
  O56      1.0000 0.66698  0.38180  0.27993  Biso   1.000  O
  O57      1.0000 0.92028  0.06739  0.79715  Biso   1.000  O
  O58      1.0000 0.91836  0.90062  0.96634  Biso   1.000  O
  O59      1.0000 0.08663  0.90026  0.79757  Biso   1.000  O
  O60      1.0000 0.91869  0.19120  0.79874  Biso   1.000  O
  O61      1.0000 0.08787  0.19070  0.79682  Biso   1.000  O
  O62      1.0000 0.91911  0.19156  0.96509  Biso   1.000  O
  O63      1.0000 0.21086  0.89904  0.96550  Biso   1.000  O
  O64      1.0000 0.21036  0.06822  0.79874  Biso   1.000  O
  O65      1.0000 0.21122  0.89945  0.79838  Biso   1.000  O
  O66      1.0000 0.08705  0.90062  0.08932  Biso   1.000  O
  O67      1.0000 0.92028  0.89870  0.08882  Biso   1.000  O
  O68      1.0000 0.91992  0.06697  0.08967  Biso   1.000  O
  O69      1.0000 0.64390  0.46600  0.53248  Biso   1.000  O
  O70      1.0000 0.64582  0.63276  0.36329  Biso   1.000  O
  O71      1.0000 0.47755  0.63312  0.53206  Biso   1.000  O
  O72      1.0000 0.64549  0.34219  0.53089  Biso   1.000  O
  O73      1.0000 0.47630  0.34268  0.53281  Biso   1.000  O
  O74      1.0000 0.64507  0.34183  0.36454  Biso   1.000  O
  O75      1.0000 0.35332  0.63435  0.36413  Biso   1.000  O
  O76      1.0000 0.35382  0.46517  0.53089  Biso   1.000  O
  O77      1.0000 0.35296  0.63393  0.53125  Biso   1.000  O
  O78      1.0000 0.47713  0.63276  0.24031  Biso   1.000  O
  O79      1.0000 0.64390  0.63469  0.24081  Biso   1.000  O
  O80      1.0000 0.64426  0.46641  0.23996  Biso   1.000  O
  O81      1.0000 0.03422  0.01456  0.91268  Biso   1.000  O
  O82      1.0000 0.52996  0.51882  0.41695  Biso   1.000  O
  O83      1.0000 0.11473  0.81622  0.71109  Biso   1.000  O
  O84      1.0000 0.35365  0.81297  0.71434  Biso   1.000  O
  O85      1.0000 0.44945  0.71717  0.61854  Biso   1.000  O
  O86      1.0000 0.21053  0.72042  0.61529  Biso   1.000  O
  O87      1.0000 0.35246  0.09488  0.71558  Biso   1.000  O
  O88      1.0000 0.44963  0.19205  0.61840  Biso   1.000  O
  O89      1.0000 0.83277  0.81746  0.99300  Biso   1.000  O
  O90      1.0000 0.73560  0.72029  0.09017  Biso   1.000  O
  O91      1.0000 0.83577  0.34153  0.71240  Biso   1.000  O
  O92      1.0000 0.83264  0.34253  0.99318  Biso   1.000  O
  O93      1.0000 0.45820  0.71911  0.08997  Biso   1.000  O
  O94      1.0000 0.73684  0.43832  0.08898  Biso   1.000  O
  O95      1.0000 0.11455  0.34133  0.71122  Biso   1.000  O
  O96      1.0000 0.21172  0.43851  0.61405  Biso   1.000  O
  O97      1.0000 0.82858  0.81310  0.23946  Biso   1.000  O
  O98      1.0000 0.73141  0.71593  0.33663  Biso   1.000  O
  O99      1.0000 0.21152  0.71729  0.33665  Biso   1.000  O
  O100     1.0000 0.82734  0.09506  0.24065  Biso   1.000  O
  O101     1.0000 0.73154  0.19086  0.33644  Biso   1.000  O
  O102     1.0000 0.10598  0.81428  0.23966  Biso   1.000  O
  O103     1.0000 0.72840  0.19185  0.61722  Biso   1.000  O
  O104     1.0000 0.83394  0.09486  0.71422  Biso   1.000  O
  O105     1.0000 0.73023  0.43853  0.61541  Biso   1.000  O
