data_image0
_cell_length_a       18.3127
_cell_length_b       18.3127
_cell_length_c       18.3127
_cell_angle_alpha    60
_cell_angle_beta     60
_cell_angle_gamma    60

_symmetry_space_group_name_H-M    "P 1"
_symmetry_int_tables_number       1

loop_
  _symmetry_equiv_pos_as_xyz
  'x, y, z'

loop_
  _atom_site_label
  _atom_site_occupancy
  _atom_site_fract_x
  _atom_site_fract_y
  _atom_site_fract_z
  _atom_site_thermal_displace_type
  _atom_site_B_iso_or_equiv
  _atom_site_type_symbol
  Zn1      1.0000 0.20666  0.38001  0.20666  Biso   1.000  Zn
  Zn2      1.0000 0.38001  0.20666  0.20666  Biso   1.000  Zn
  Zn3      1.0000 0.20667  0.20666  0.20666  Biso   1.000  Zn
  Zn4      1.0000 0.20667  0.20666  0.38001  Biso   1.000  Zn
  Zn5      1.0000 0.61999  0.79334  0.79334  Biso   1.000  Zn
  Zn6      1.0000 0.79334  0.61999  0.79333  Biso   1.000  Zn
  Zn7      1.0000 0.79334  0.79333  0.79334  Biso   1.000  Zn
  Zn8      1.0000 0.79334  0.79333  0.61999  Biso   1.000  Zn
  H1       1.0000 0.04520  0.56580  0.04520  Biso   1.000  H
  H2       1.0000 0.56580  0.04520  0.34380  Biso   1.000  H
  H3       1.0000 0.04520  0.34380  0.04520  Biso   1.000  H
  H4       1.0000 0.34380  0.04520  0.56580  Biso   1.000  H
  H5       1.0000 0.04520  0.04520  0.34380  Biso   1.000  H
  H6       1.0000 0.56580  0.34380  0.04520  Biso   1.000  H
  H7       1.0000 0.04520  0.04520  0.56580  Biso   1.000  H
  H8       1.0000 0.34380  0.56580  0.04520  Biso   1.000  H
  H9       1.0000 0.04520  0.34380  0.56580  Biso   1.000  H
  H10      1.0000 0.56580  0.04520  0.04520  Biso   1.000  H
  H11      1.0000 0.04520  0.56580  0.34380  Biso   1.000  H
  H12      1.0000 0.34380  0.04520  0.04520  Biso   1.000  H
  H13      1.0000 0.43420  0.95480  0.95480  Biso   1.000  H
  H14      1.0000 0.95480  0.43420  0.65620  Biso   1.000  H
  H15      1.0000 0.65620  0.95480  0.95480  Biso   1.000  H
  H16      1.0000 0.95480  0.65620  0.43420  Biso   1.000  H
  H17      1.0000 0.95480  0.95480  0.65620  Biso   1.000  H
  H18      1.0000 0.65620  0.43420  0.95480  Biso   1.000  H
  H19      1.0000 0.95480  0.95480  0.43420  Biso   1.000  H
  H20      1.0000 0.43420  0.65620  0.95480  Biso   1.000  H
  H21      1.0000 0.65620  0.95480  0.43420  Biso   1.000  H
  H22      1.0000 0.95480  0.43420  0.95480  Biso   1.000  H
  H23      1.0000 0.43420  0.95480  0.65620  Biso   1.000  H
  H24      1.0000 0.95480  0.65620  0.95480  Biso   1.000  H
  C1       1.0000 0.02688  0.53930  0.02688  Biso   1.000  C
  C2       1.0000 0.53930  0.02688  0.40694  Biso   1.000  C
  C3       1.0000 0.02688  0.40694  0.02688  Biso   1.000  C
  C4       1.0000 0.40694  0.02688  0.53930  Biso   1.000  C
  C5       1.0000 0.02688  0.02688  0.40694  Biso   1.000  C
  C6       1.0000 0.53930  0.40694  0.02688  Biso   1.000  C
  C7       1.0000 0.02688  0.02688  0.53930  Biso   1.000  C
  C8       1.0000 0.40694  0.53930  0.02688  Biso   1.000  C
  C9       1.0000 0.02688  0.40694  0.53930  Biso   1.000  C
  C10      1.0000 0.53930  0.02688  0.02688  Biso   1.000  C
  C11      1.0000 0.02688  0.53930  0.40694  Biso   1.000  C
  C12      1.0000 0.40694  0.02688  0.02688  Biso   1.000  C
  C13      1.0000 0.46070  0.97312  0.97312  Biso   1.000  C
  C14      1.0000 0.97312  0.46070  0.59306  Biso   1.000  C
  C15      1.0000 0.59306  0.97312  0.97312  Biso   1.000  C
  C16      1.0000 0.97312  0.59306  0.46070  Biso   1.000  C
  C17      1.0000 0.97312  0.97312  0.59306  Biso   1.000  C
  C18      1.0000 0.59306  0.46070  0.97312  Biso   1.000  C
  C19      1.0000 0.97312  0.97312  0.46070  Biso   1.000  C
  C20      1.0000 0.46070  0.59306  0.97312  Biso   1.000  C
  C21      1.0000 0.59306  0.97312  0.46070  Biso   1.000  C
  C22      1.0000 0.97312  0.46070  0.97312  Biso   1.000  C
  C23      1.0000 0.46070  0.97312  0.59306  Biso   1.000  C
  C24      1.0000 0.97312  0.59306  0.97312  Biso   1.000  C
  C25      1.0000 0.11142  0.38858  0.11142  Biso   1.000  C
  C26      1.0000 0.05381  0.44619  0.05381  Biso   1.000  C
  C27      1.0000 0.38858  0.11142  0.38858  Biso   1.000  C
  C28      1.0000 0.44619  0.05381  0.44619  Biso   1.000  C
  C29      1.0000 0.11142  0.11142  0.38858  Biso   1.000  C
  C30      1.0000 0.05381  0.05381  0.44619  Biso   1.000  C
  C31      1.0000 0.38858  0.38858  0.11142  Biso   1.000  C
  C32      1.0000 0.44619  0.44619  0.05381  Biso   1.000  C
  C33      1.0000 0.11142  0.38858  0.38858  Biso   1.000  C
  C34      1.0000 0.05381  0.44619  0.44619  Biso   1.000  C
  C35      1.0000 0.38858  0.11142  0.11142  Biso   1.000  C
  C36      1.0000 0.44619  0.05381  0.05381  Biso   1.000  C
  C37      1.0000 0.61142  0.88858  0.88858  Biso   1.000  C
  C38      1.0000 0.55381  0.94619  0.94619  Biso   1.000  C
  C39      1.0000 0.88858  0.61142  0.61142  Biso   1.000  C
  C40      1.0000 0.94619  0.55381  0.55381  Biso   1.000  C
  C41      1.0000 0.88858  0.88858  0.61142  Biso   1.000  C
  C42      1.0000 0.94619  0.94619  0.55381  Biso   1.000  C
  C43      1.0000 0.61142  0.61142  0.88858  Biso   1.000  C
  C44      1.0000 0.55381  0.55381  0.94619  Biso   1.000  C
  C45      1.0000 0.61142  0.88858  0.61142  Biso   1.000  C
  C46      1.0000 0.55381  0.94619  0.55381  Biso   1.000  C
  C47      1.0000 0.88858  0.61142  0.88858  Biso   1.000  C
  C48      1.0000 0.94619  0.55381  0.94619  Biso   1.000  C
  O1       1.0000 0.25000  0.25000  0.25000  Biso   1.000  O
  O2       1.0000 0.75000  0.75000  0.75000  Biso   1.000  O
  O3       1.0000 0.13369  0.42773  0.13369  Biso   1.000  O
  O4       1.0000 0.42773  0.13369  0.30489  Biso   1.000  O
  O5       1.0000 0.13369  0.30489  0.13369  Biso   1.000  O
  O6       1.0000 0.30489  0.13369  0.42773  Biso   1.000  O
  O7       1.0000 0.13369  0.13369  0.30489  Biso   1.000  O
  O8       1.0000 0.42773  0.30489  0.13369  Biso   1.000  O
  O9       1.0000 0.13369  0.13369  0.42773  Biso   1.000  O
  O10      1.0000 0.30489  0.42773  0.13369  Biso   1.000  O
  O11      1.0000 0.13369  0.30489  0.42773  Biso   1.000  O
  O12      1.0000 0.42773  0.13369  0.13369  Biso   1.000  O
  O13      1.0000 0.13369  0.42773  0.30489  Biso   1.000  O
  O14      1.0000 0.30489  0.13369  0.13369  Biso   1.000  O
  O15      1.0000 0.57227  0.86631  0.86631  Biso   1.000  O
  O16      1.0000 0.86631  0.57227  0.69511  Biso   1.000  O
  O17      1.0000 0.69511  0.86631  0.86631  Biso   1.000  O
  O18      1.0000 0.86631  0.69511  0.57227  Biso   1.000  O
  O19      1.0000 0.86631  0.86631  0.69511  Biso   1.000  O
  O20      1.0000 0.69511  0.57227  0.86631  Biso   1.000  O
  O21      1.0000 0.86631  0.86631  0.57227  Biso   1.000  O
  O22      1.0000 0.57227  0.69511  0.86631  Biso   1.000  O
  O23      1.0000 0.69511  0.86631  0.57227  Biso   1.000  O
  O24      1.0000 0.86631  0.57227  0.86631  Biso   1.000  O
  O25      1.0000 0.57227  0.86631  0.69511  Biso   1.000  O
  O26      1.0000 0.86631  0.69511  0.86631  Biso   1.000  O
  Zn9      1.0000 0.00000  0.00000  0.00000  Biso   1.000  Zn
  Zn10     1.0000 0.41413  0.58574  0.41440  Biso   1.000  Zn
  Zn11     1.0000 0.41412  0.41144  0.41440  Biso   1.000  Zn
  Zn12     1.0000 1.00000  0.82570  0.00000  Biso   1.000  Zn
  Zn13     1.0000 0.99954  0.00034  0.82548  Biso   1.000  Zn
  Zn14     1.0000 0.82530  0.00015  0.00010  Biso   1.000  Zn
  Zn15     1.0000 0.41458  0.41110  0.58891  Biso   1.000  Zn
  Zn16     1.0000 0.58882  0.41129  0.41430  Biso   1.000  Zn
  H25      1.0000 0.16587  0.64336  0.85691  Biso   1.000  H
  H26      1.0000 0.15626  0.86077  0.64590  Biso   1.000  H
  H27      1.0000 0.86300  0.64444  0.15962  Biso   1.000  H
  H28      1.0000 0.64290  0.85825  0.16191  Biso   1.000  H
  H29      1.0000 0.16668  0.86025  0.15713  Biso   1.000  H
  H30      1.0000 0.24825  0.25188  0.55749  Biso   1.000  H
  H31      1.0000 0.25786  0.24867  0.76850  Biso   1.000  H
  H32      1.0000 0.55113  0.25279  0.25478  Biso   1.000  H
  H33      1.0000 0.77123  0.24880  0.25249  Biso   1.000  H
  H34      1.0000 0.24744  0.76979  0.25727  Biso   1.000  H
  H35      1.0000 0.24825  0.76808  0.55749  Biso   1.000  H
  H36      1.0000 0.25786  0.55067  0.76850  Biso   1.000  H
  H37      1.0000 0.55113  0.76700  0.25478  Biso   1.000  H
  H38      1.0000 0.77123  0.55319  0.25249  Biso   1.000  H
  H39      1.0000 0.24744  0.55120  0.25727  Biso   1.000  H
  H40      1.0000 0.16587  0.15957  0.85691  Biso   1.000  H
  H41      1.0000 0.15626  0.16277  0.64590  Biso   1.000  H
  H42      1.0000 0.86300  0.15865  0.15962  Biso   1.000  H
  H43      1.0000 0.64290  0.16264  0.16191  Biso   1.000  H
  H44      1.0000 0.16669  0.64165  0.15713  Biso   1.000  H
  H45      1.0000 0.64378  0.16146  0.85900  Biso   1.000  H
  H46      1.0000 0.85696  0.16257  0.64361  Biso   1.000  H
  H47      1.0000 0.77034  0.24998  0.55539  Biso   1.000  H
  H48      1.0000 0.55717  0.24887  0.77079  Biso   1.000  H
  C49      1.0000 0.09398  0.81721  0.82063  Biso   1.000  C
  C50      1.0000 0.15338  0.75930  0.75963  Biso   1.000  C
  C51      1.0000 0.18361  0.66898  0.79491  Biso   1.000  C
  C52      1.0000 0.17560  0.79888  0.67181  Biso   1.000  C
  C53      1.0000 0.81582  0.82038  0.09682  Biso   1.000  C
  C54      1.0000 0.76190  0.76207  0.15194  Biso   1.000  C
  C55      1.0000 0.80101  0.67055  0.17756  Biso   1.000  C
  C56      1.0000 0.67051  0.79646  0.17935  Biso   1.000  C
  C57      1.0000 0.18253  0.79835  0.17716  Biso   1.000  C
  C58      1.0000 0.32015  0.31755  0.59377  Biso   1.000  C
  C59      1.0000 0.26075  0.25805  0.65477  Biso   1.000  C
  C60      1.0000 0.23051  0.23323  0.61948  Biso   1.000  C
  C61      1.0000 0.23853  0.23203  0.74258  Biso   1.000  C
  C62      1.0000 0.59831  0.31877  0.31757  Biso   1.000  C
  C63      1.0000 0.65222  0.26166  0.26245  Biso   1.000  C
  C64      1.0000 0.61312  0.23485  0.23684  Biso   1.000  C
  C65      1.0000 0.74362  0.23206  0.23504  Biso   1.000  C
  C66      1.0000 0.23159  0.74378  0.23723  Biso   1.000  C
  C67      1.0000 0.32015  0.59423  0.59377  Biso   1.000  C
  C68      1.0000 0.26075  0.65214  0.65477  Biso   1.000  C
  C69      1.0000 0.23051  0.74247  0.61948  Biso   1.000  C
  C70      1.0000 0.23853  0.61257  0.74258  Biso   1.000  C
  C71      1.0000 0.59831  0.59106  0.31757  Biso   1.000  C
  C72      1.0000 0.65223  0.64937  0.26245  Biso   1.000  C
  C73      1.0000 0.61312  0.74089  0.23684  Biso   1.000  C
  C74      1.0000 0.74362  0.61498  0.23504  Biso   1.000  C
  C75      1.0000 0.23159  0.61309  0.23723  Biso   1.000  C
  C76      1.0000 0.09398  0.09389  0.82063  Biso   1.000  C
  C77      1.0000 0.15338  0.15339  0.75963  Biso   1.000  C
  C78      1.0000 0.18361  0.17821  0.79491  Biso   1.000  C
  C79      1.0000 0.17560  0.17941  0.67181  Biso   1.000  C
  C80      1.0000 0.81582  0.09268  0.09682  Biso   1.000  C
  C81      1.0000 0.76190  0.14978  0.15194  Biso   1.000  C
  C82      1.0000 0.80100  0.17659  0.17756  Biso   1.000  C
  C83      1.0000 0.67051  0.17938  0.17935  Biso   1.000  C
  C84      1.0000 0.18254  0.66766  0.17716  Biso   1.000  C
  C85      1.0000 0.82248  0.09468  0.81385  Biso   1.000  C
  C86      1.0000 0.76049  0.15170  0.76182  Biso   1.000  C
  C87      1.0000 0.67089  0.17881  0.79720  Biso   1.000  C
  C88      1.0000 0.79507  0.18001  0.67062  Biso   1.000  C
  C89      1.0000 0.09250  0.82218  0.08885  Biso   1.000  C
  C90      1.0000 0.15230  0.76068  0.15204  Biso   1.000  C
  C91      1.0000 0.59164  0.31676  0.60055  Biso   1.000  C
  C92      1.0000 0.65364  0.25974  0.65258  Biso   1.000  C
  C93      1.0000 0.74324  0.23264  0.61719  Biso   1.000  C
  C94      1.0000 0.61906  0.23143  0.74378  Biso   1.000  C
  C95      1.0000 0.32163  0.58927  0.32555  Biso   1.000  C
  C96      1.0000 0.26183  0.65076  0.26235  Biso   1.000  C
  O27      1.0000 0.07394  0.90233  0.77488  Biso   1.000  O
  O28      1.0000 0.07524  0.77345  0.90455  Biso   1.000  O
  O29      1.0000 0.77605  0.90331  0.07041  Biso   1.000  O
  O30      1.0000 0.90183  0.77643  0.07440  Biso   1.000  O
  O31      1.0000 0.07346  0.90430  0.07161  Biso   1.000  O
  O32      1.0000 0.34018  0.33689  0.63952  Biso   1.000  O
  O33      1.0000 0.33888  0.33899  0.50984  Biso   1.000  O
  O34      1.0000 0.63807  0.33551  0.34399  Biso   1.000  O
  O35      1.0000 0.51229  0.33840  0.34000  Biso   1.000  O
  O36      1.0000 0.34067  0.63511  0.34279  Biso   1.000  O
  O37      1.0000 0.34018  0.50912  0.63952  Biso   1.000  O
  O38      1.0000 0.33888  0.63799  0.50984  Biso   1.000  O
  O39      1.0000 0.63808  0.50813  0.34399  Biso   1.000  O
  O40      1.0000 0.51230  0.63501  0.34000  Biso   1.000  O
  O41      1.0000 0.34067  0.50714  0.34279  Biso   1.000  O
  O42      1.0000 0.07394  0.07455  0.77488  Biso   1.000  O
  O43      1.0000 0.07525  0.07245  0.90455  Biso   1.000  O
  O44      1.0000 0.77605  0.07593  0.07041  Biso   1.000  O
  O45      1.0000 0.90183  0.07304  0.07440  Biso   1.000  O
  O46      1.0000 0.07346  0.77633  0.07161  Biso   1.000  O
  O47      1.0000 0.95694  0.95634  0.95608  Biso   1.000  O
  O48      1.0000 0.90301  0.07356  0.77557  Biso   1.000  O
  O49      1.0000 0.77744  0.07584  0.89658  Biso   1.000  O
  O50      1.0000 0.45718  0.45510  0.45831  Biso   1.000  O
  O51      1.0000 0.51111  0.33789  0.63882  Biso   1.000  O
