data_image0
_cell_length_a       18.2943
_cell_length_b       18.2943
_cell_length_c       18.2943
_cell_angle_alpha    60
_cell_angle_beta     60
_cell_angle_gamma    60

_symmetry_space_group_name_H-M    "P 1"
_symmetry_int_tables_number       1

loop_
  _symmetry_equiv_pos_as_xyz
  'x, y, z'

loop_
  _atom_site_label
  _atom_site_occupancy
  _atom_site_fract_x
  _atom_site_fract_y
  _atom_site_fract_z
  _atom_site_thermal_displace_type
  _atom_site_B_iso_or_equiv
  _atom_site_type_symbol
  Zn1      1.0000 0.20660  0.38020  0.20660  Biso   1.000  Zn
  Zn2      1.0000 0.38020  0.20660  0.20660  Biso   1.000  Zn
  Zn3      1.0000 0.20660  0.20660  0.20660  Biso   1.000  Zn
  Zn4      1.0000 0.20660  0.20660  0.38020  Biso   1.000  Zn
  Zn5      1.0000 0.61980  0.79340  0.79340  Biso   1.000  Zn
  Zn6      1.0000 0.79340  0.61980  0.79340  Biso   1.000  Zn
  Zn7      1.0000 0.79340  0.79340  0.79340  Biso   1.000  Zn
  Zn8      1.0000 0.79340  0.79340  0.61980  Biso   1.000  Zn
  H1       1.0000 0.04510  0.56550  0.04510  Biso   1.000  H
  H2       1.0000 0.56550  0.04510  0.34430  Biso   1.000  H
  H3       1.0000 0.04510  0.34430  0.04510  Biso   1.000  H
  H4       1.0000 0.34430  0.04510  0.56550  Biso   1.000  H
  H5       1.0000 0.04510  0.04510  0.34430  Biso   1.000  H
  H6       1.0000 0.56550  0.34430  0.04510  Biso   1.000  H
  H7       1.0000 0.04510  0.04510  0.56550  Biso   1.000  H
  H8       1.0000 0.34430  0.56550  0.04510  Biso   1.000  H
  H9       1.0000 0.04510  0.34430  0.56550  Biso   1.000  H
  H10      1.0000 0.56550  0.04510  0.04510  Biso   1.000  H
  H11      1.0000 0.04510  0.56550  0.34430  Biso   1.000  H
  H12      1.0000 0.34430  0.04510  0.04510  Biso   1.000  H
  H13      1.0000 0.43450  0.95490  0.95490  Biso   1.000  H
  H14      1.0000 0.95490  0.43450  0.65570  Biso   1.000  H
  H15      1.0000 0.65570  0.95490  0.95490  Biso   1.000  H
  H16      1.0000 0.95490  0.65570  0.43450  Biso   1.000  H
  H17      1.0000 0.95490  0.95490  0.65570  Biso   1.000  H
  H18      1.0000 0.65570  0.43450  0.95490  Biso   1.000  H
  H19      1.0000 0.95490  0.95490  0.43450  Biso   1.000  H
  H20      1.0000 0.43450  0.65570  0.95490  Biso   1.000  H
  H21      1.0000 0.65570  0.95490  0.43450  Biso   1.000  H
  H22      1.0000 0.95490  0.43450  0.95490  Biso   1.000  H
  H23      1.0000 0.43450  0.95490  0.65570  Biso   1.000  H
  H24      1.0000 0.95490  0.65570  0.95490  Biso   1.000  H
  C1       1.0000 0.02675  0.53889  0.02675  Biso   1.000  C
  C2       1.0000 0.53889  0.02675  0.40761  Biso   1.000  C
  C3       1.0000 0.02675  0.40761  0.02675  Biso   1.000  C
  C4       1.0000 0.40761  0.02675  0.53889  Biso   1.000  C
  C5       1.0000 0.02675  0.02675  0.40761  Biso   1.000  C
  C6       1.0000 0.53889  0.40761  0.02675  Biso   1.000  C
  C7       1.0000 0.02675  0.02675  0.53889  Biso   1.000  C
  C8       1.0000 0.40761  0.53889  0.02675  Biso   1.000  C
  C9       1.0000 0.02675  0.40761  0.53889  Biso   1.000  C
  C10      1.0000 0.53889  0.02675  0.02675  Biso   1.000  C
  C11      1.0000 0.02675  0.53889  0.40761  Biso   1.000  C
  C12      1.0000 0.40761  0.02675  0.02675  Biso   1.000  C
  C13      1.0000 0.46111  0.97325  0.97325  Biso   1.000  C
  C14      1.0000 0.97325  0.46111  0.59239  Biso   1.000  C
  C15      1.0000 0.59239  0.97325  0.97325  Biso   1.000  C
  C16      1.0000 0.97325  0.59239  0.46111  Biso   1.000  C
  C17      1.0000 0.97325  0.97325  0.59239  Biso   1.000  C
  C18      1.0000 0.59239  0.46111  0.97325  Biso   1.000  C
  C19      1.0000 0.97325  0.97325  0.46111  Biso   1.000  C
  C20      1.0000 0.46111  0.59239  0.97325  Biso   1.000  C
  C21      1.0000 0.59239  0.97325  0.46111  Biso   1.000  C
  C22      1.0000 0.97325  0.46111  0.97325  Biso   1.000  C
  C23      1.0000 0.46111  0.97325  0.59239  Biso   1.000  C
  C24      1.0000 0.97325  0.59239  0.97325  Biso   1.000  C
  C25      1.0000 0.11147  0.38853  0.11147  Biso   1.000  C
  C26      1.0000 0.05374  0.44626  0.05374  Biso   1.000  C
  C27      1.0000 0.38853  0.11147  0.38853  Biso   1.000  C
  C28      1.0000 0.44626  0.05374  0.44626  Biso   1.000  C
  C29      1.0000 0.11147  0.11147  0.38853  Biso   1.000  C
  C30      1.0000 0.05374  0.05374  0.44626  Biso   1.000  C
  C31      1.0000 0.38853  0.38853  0.11147  Biso   1.000  C
  C32      1.0000 0.44626  0.44626  0.05374  Biso   1.000  C
  C33      1.0000 0.11147  0.38853  0.38853  Biso   1.000  C
  C34      1.0000 0.05374  0.44626  0.44626  Biso   1.000  C
  C35      1.0000 0.38853  0.11147  0.11147  Biso   1.000  C
  C36      1.0000 0.44626  0.05374  0.05374  Biso   1.000  C
  C37      1.0000 0.61147  0.88853  0.88853  Biso   1.000  C
  C38      1.0000 0.55374  0.94626  0.94626  Biso   1.000  C
  C39      1.0000 0.88853  0.61147  0.61147  Biso   1.000  C
  C40      1.0000 0.94626  0.55374  0.55374  Biso   1.000  C
  C41      1.0000 0.88853  0.88853  0.61147  Biso   1.000  C
  C42      1.0000 0.94626  0.94626  0.55374  Biso   1.000  C
  C43      1.0000 0.61147  0.61147  0.88853  Biso   1.000  C
  C44      1.0000 0.55374  0.55374  0.94626  Biso   1.000  C
  C45      1.0000 0.61147  0.88853  0.61147  Biso   1.000  C
  C46      1.0000 0.55374  0.94626  0.55374  Biso   1.000  C
  C47      1.0000 0.88853  0.61147  0.88853  Biso   1.000  C
  C48      1.0000 0.94626  0.55374  0.94626  Biso   1.000  C
  O1       1.0000 0.25000  0.25000  0.25000  Biso   1.000  O
  O2       1.0000 0.75000  0.75000  0.75000  Biso   1.000  O
  O3       1.0000 0.13372  0.42764  0.13372  Biso   1.000  O
  O4       1.0000 0.42764  0.13372  0.30492  Biso   1.000  O
  O5       1.0000 0.13372  0.30492  0.13372  Biso   1.000  O
  O6       1.0000 0.30492  0.13372  0.42764  Biso   1.000  O
  O7       1.0000 0.13372  0.13372  0.30492  Biso   1.000  O
  O8       1.0000 0.42764  0.30492  0.13372  Biso   1.000  O
  O9       1.0000 0.13372  0.13372  0.42764  Biso   1.000  O
  O10      1.0000 0.30492  0.42764  0.13372  Biso   1.000  O
  O11      1.0000 0.13372  0.30492  0.42764  Biso   1.000  O
  O12      1.0000 0.42764  0.13372  0.13372  Biso   1.000  O
  O13      1.0000 0.13372  0.42764  0.30492  Biso   1.000  O
  O14      1.0000 0.30492  0.13372  0.13372  Biso   1.000  O
  O15      1.0000 0.57236  0.86628  0.86628  Biso   1.000  O
  O16      1.0000 0.86628  0.57236  0.69508  Biso   1.000  O
  O17      1.0000 0.69508  0.86628  0.86628  Biso   1.000  O
  O18      1.0000 0.86628  0.69508  0.57236  Biso   1.000  O
  O19      1.0000 0.86628  0.86628  0.69508  Biso   1.000  O
  O20      1.0000 0.69508  0.57236  0.86628  Biso   1.000  O
  O21      1.0000 0.86628  0.86628  0.57236  Biso   1.000  O
  O22      1.0000 0.57236  0.69508  0.86628  Biso   1.000  O
  O23      1.0000 0.69508  0.86628  0.57236  Biso   1.000  O
  O24      1.0000 0.86628  0.57236  0.86628  Biso   1.000  O
  O25      1.0000 0.57236  0.86628  0.69508  Biso   1.000  O
  O26      1.0000 0.86628  0.69508  0.86628  Biso   1.000  O
  Zn9      1.0000 0.85306  0.01849  0.13389  Biso   1.000  Zn
  Zn10     1.0000 0.43433  0.59976  0.54196  Biso   1.000  Zn
  Zn11     1.0000 0.60768  0.42641  0.54196  Biso   1.000  Zn
  Zn12     1.0000 0.02641  0.84514  0.13389  Biso   1.000  Zn
  Zn13     1.0000 0.02649  0.01857  0.96035  Biso   1.000  Zn
  Zn14     1.0000 0.02623  0.01831  0.13402  Biso   1.000  Zn
  Zn15     1.0000 0.43425  0.42633  0.71550  Biso   1.000  Zn
  Zn16     1.0000 0.43451  0.42659  0.54183  Biso   1.000  Zn
  H25      1.0000 0.88879  0.17493  0.76697  Biso   1.000  H
  H26      1.0000 0.65862  0.17339  0.99774  Biso   1.000  H
  H27      1.0000 0.65662  0.88228  0.28796  Biso   1.000  H
  H28      1.0000 0.27789  0.56402  0.90888  Biso   1.000  H
  H29      1.0000 0.27943  0.79420  0.67811  Biso   1.000  H
  H30      1.0000 0.57054  0.79620  0.38790  Biso   1.000  H
  H31      1.0000 0.57195  0.26996  0.90888  Biso   1.000  H
  H32      1.0000 0.80212  0.27151  0.67811  Biso   1.000  H
  H33      1.0000 0.80412  0.56261  0.38790  Biso   1.000  H
  H34      1.0000 0.18285  0.88087  0.76697  Biso   1.000  H
  H35      1.0000 0.18131  0.65069  0.99774  Biso   1.000  H
  H36      1.0000 0.89020  0.64870  0.28796  Biso   1.000  H
  C49      1.0000 0.85599  0.10651  0.95588  Biso   1.000  C
  C50      1.0000 0.78683  0.17092  0.89671  Biso   1.000  C
  C51      1.0000 0.82547  0.19630  0.79329  Biso   1.000  C
  C52      1.0000 0.68563  0.19486  0.93461  Biso   1.000  C
  C53      1.0000 0.85241  0.10590  0.22117  Biso   1.000  C
  C54      1.0000 0.68264  0.81925  0.31161  Biso   1.000  C
  C55      1.0000 0.34631  0.59683  0.71997  Biso   1.000  C
  C56      1.0000 0.28189  0.66599  0.77914  Biso   1.000  C
  C57      1.0000 0.25652  0.62735  0.88256  Biso   1.000  C
  C58      1.0000 0.25795  0.76719  0.74124  Biso   1.000  C
  C59      1.0000 0.34692  0.60041  0.45469  Biso   1.000  C
  C60      1.0000 0.63356  0.77018  0.36425  Biso   1.000  C
  C61      1.0000 0.60475  0.33839  0.71997  Biso   1.000  C
  C62      1.0000 0.67391  0.27397  0.77914  Biso   1.000  C
  C63      1.0000 0.63527  0.24859  0.88256  Biso   1.000  C
  C64      1.0000 0.77511  0.25003  0.74124  Biso   1.000  C
  C65      1.0000 0.60833  0.33900  0.45469  Biso   1.000  C
  C66      1.0000 0.77810  0.62564  0.36425  Biso   1.000  C
  C67      1.0000 0.11443  0.84807  0.95588  Biso   1.000  C
  C68      1.0000 0.17885  0.77891  0.89671  Biso   1.000  C
  C69      1.0000 0.20422  0.81755  0.79329  Biso   1.000  C
  C70      1.0000 0.20279  0.67771  0.93461  Biso   1.000  C
  C71      1.0000 0.11382  0.84449  0.22117  Biso   1.000  C
  C72      1.0000 0.82718  0.67472  0.31161  Biso   1.000  C
  C73      1.0000 0.11473  0.10680  0.95598  Biso   1.000  C
  C74      1.0000 0.85133  0.84340  0.22028  Biso   1.000  C
  C75      1.0000 0.78661  0.77869  0.28895  Biso   1.000  C
  C76      1.0000 0.34601  0.33809  0.71987  Biso   1.000  C
  C77      1.0000 0.60941  0.60149  0.45558  Biso   1.000  C
  C78      1.0000 0.67413  0.66621  0.38691  Biso   1.000  C
  O27      1.0000 0.93337  0.09028  0.91215  Biso   1.000  O
  O28      1.0000 0.80434  0.09107  0.03841  Biso   1.000  O
  O29      1.0000 0.93315  0.09046  0.20494  Biso   1.000  O
  O30      1.0000 0.80294  0.09066  0.20504  Biso   1.000  O
  O31      1.0000 0.80324  0.92473  0.20662  Biso   1.000  O
  O32      1.0000 0.36253  0.51945  0.76370  Biso   1.000  O
  O33      1.0000 0.36175  0.64848  0.63744  Biso   1.000  O
  O34      1.0000 0.36235  0.51967  0.47091  Biso   1.000  O
  O35      1.0000 0.36215  0.64988  0.47081  Biso   1.000  O
  O36      1.0000 0.52808  0.64958  0.46923  Biso   1.000  O
  O37      1.0000 0.52737  0.35461  0.76370  Biso   1.000  O
  O38      1.0000 0.65640  0.35383  0.63744  Biso   1.000  O
  O39      1.0000 0.52759  0.35443  0.47091  Biso   1.000  O
  O40      1.0000 0.65780  0.35423  0.47081  Biso   1.000  O
  O41      1.0000 0.65750  0.52016  0.46923  Biso   1.000  O
  O42      1.0000 0.09821  0.92544  0.91215  Biso   1.000  O
  O43      1.0000 0.09899  0.79641  0.03841  Biso   1.000  O
  O44      1.0000 0.09839  0.92523  0.20494  Biso   1.000  O
  O45      1.0000 0.09859  0.79502  0.20504  Biso   1.000  O
  O46      1.0000 0.93266  0.79532  0.20662  Biso   1.000  O
  O47      1.0000 0.98174  0.97382  0.09174  Biso   1.000  O
  O48      1.0000 0.09811  0.09018  0.91067  Biso   1.000  O
  O49      1.0000 0.09800  0.09008  0.04019  Biso   1.000  O
  O50      1.0000 0.47900  0.47108  0.58411  Biso   1.000  O
  O51      1.0000 0.36263  0.35471  0.76519  Biso   1.000  O
