data_image0
_cell_length_a       18.3127
_cell_length_b       18.3127
_cell_length_c       18.3127
_cell_angle_alpha    60
_cell_angle_beta     60
_cell_angle_gamma    60

_symmetry_space_group_name_H-M    "P 1"
_symmetry_int_tables_number       1

loop_
  _symmetry_equiv_pos_as_xyz
  'x, y, z'

loop_
  _atom_site_label
  _atom_site_occupancy
  _atom_site_fract_x
  _atom_site_fract_y
  _atom_site_fract_z
  _atom_site_thermal_displace_type
  _atom_site_B_iso_or_equiv
  _atom_site_type_symbol
  C1       1.0000 0.20666  0.38001  0.20666  Biso   1.000  C
  C2       1.0000 0.38001  0.20666  0.20666  Biso   1.000  C
  C3       1.0000 0.20667  0.20666  0.20666  Biso   1.000  C
  C4       1.0000 0.20667  0.20666  0.38001  Biso   1.000  C
  C5       1.0000 0.61999  0.79334  0.79334  Biso   1.000  C
  C6       1.0000 0.79334  0.61999  0.79333  Biso   1.000  C
  C7       1.0000 0.79334  0.79333  0.79334  Biso   1.000  C
  C8       1.0000 0.79334  0.79333  0.61999  Biso   1.000  C
  C9       1.0000 0.04520  0.56580  0.04520  Biso   1.000  C
  C10      1.0000 0.56580  0.04520  0.34380  Biso   1.000  C
  C11      1.0000 0.04520  0.34380  0.04520  Biso   1.000  C
  C12      1.0000 0.34380  0.04520  0.56580  Biso   1.000  C
  C13      1.0000 0.04520  0.04520  0.34380  Biso   1.000  C
  C14      1.0000 0.56580  0.34380  0.04520  Biso   1.000  C
  C15      1.0000 0.04520  0.04520  0.56580  Biso   1.000  C
  C16      1.0000 0.34380  0.56580  0.04520  Biso   1.000  C
  C17      1.0000 0.04520  0.34380  0.56580  Biso   1.000  C
  C18      1.0000 0.56580  0.04520  0.04520  Biso   1.000  C
  C19      1.0000 0.04520  0.56580  0.34380  Biso   1.000  C
  C20      1.0000 0.34380  0.04520  0.04520  Biso   1.000  C
  C21      1.0000 0.43420  0.95480  0.95480  Biso   1.000  C
  C22      1.0000 0.95480  0.43420  0.65620  Biso   1.000  C
  C23      1.0000 0.65620  0.95480  0.95480  Biso   1.000  C
  C24      1.0000 0.95480  0.65620  0.43420  Biso   1.000  C
  C25      1.0000 0.95480  0.95480  0.65620  Biso   1.000  C
  C26      1.0000 0.65620  0.43420  0.95480  Biso   1.000  C
  C27      1.0000 0.95480  0.95480  0.43420  Biso   1.000  C
  C28      1.0000 0.43420  0.65620  0.95480  Biso   1.000  C
  C29      1.0000 0.65620  0.95480  0.43420  Biso   1.000  C
  C30      1.0000 0.95480  0.43420  0.95480  Biso   1.000  C
  C31      1.0000 0.43420  0.95480  0.65620  Biso   1.000  C
  C32      1.0000 0.95480  0.65620  0.95480  Biso   1.000  C
  C33      1.0000 0.02688  0.53930  0.02688  Biso   1.000  C
  C34      1.0000 0.53930  0.02688  0.40694  Biso   1.000  C
  C35      1.0000 0.02688  0.40694  0.02688  Biso   1.000  C
  C36      1.0000 0.40694  0.02688  0.53930  Biso   1.000  C
  C37      1.0000 0.02688  0.02688  0.40694  Biso   1.000  C
  C38      1.0000 0.53930  0.40694  0.02688  Biso   1.000  C
  C39      1.0000 0.02688  0.02688  0.53930  Biso   1.000  C
  C40      1.0000 0.40694  0.53930  0.02688  Biso   1.000  C
  C41      1.0000 0.02688  0.40694  0.53930  Biso   1.000  C
  C42      1.0000 0.53930  0.02688  0.02688  Biso   1.000  C
  C43      1.0000 0.02688  0.53930  0.40694  Biso   1.000  C
  C44      1.0000 0.40694  0.02688  0.02688  Biso   1.000  C
  C45      1.0000 0.46070  0.97312  0.97312  Biso   1.000  C
  C46      1.0000 0.97312  0.46070  0.59306  Biso   1.000  C
  C47      1.0000 0.59306  0.97312  0.97312  Biso   1.000  C
  C48      1.0000 0.97312  0.59306  0.46070  Biso   1.000  C
  C49      1.0000 0.97312  0.97312  0.59306  Biso   1.000  C
  C50      1.0000 0.59306  0.46070  0.97312  Biso   1.000  C
  C51      1.0000 0.97312  0.97312  0.46070  Biso   1.000  C
  C52      1.0000 0.46070  0.59306  0.97312  Biso   1.000  C
  C53      1.0000 0.59306  0.97312  0.46070  Biso   1.000  C
  C54      1.0000 0.97312  0.46070  0.97312  Biso   1.000  C
  C55      1.0000 0.46070  0.97312  0.59306  Biso   1.000  C
  C56      1.0000 0.97312  0.59306  0.97312  Biso   1.000  C
  C57      1.0000 0.11142  0.38858  0.11142  Biso   1.000  C
  C58      1.0000 0.05381  0.44619  0.05381  Biso   1.000  C
  C59      1.0000 0.38858  0.11142  0.38858  Biso   1.000  C
  C60      1.0000 0.44619  0.05381  0.44619  Biso   1.000  C
  C61      1.0000 0.11142  0.11142  0.38858  Biso   1.000  C
  C62      1.0000 0.05381  0.05381  0.44619  Biso   1.000  C
  C63      1.0000 0.38858  0.38858  0.11142  Biso   1.000  C
  C64      1.0000 0.44619  0.44619  0.05381  Biso   1.000  C
  C65      1.0000 0.11142  0.38858  0.38858  Biso   1.000  C
  C66      1.0000 0.05381  0.44619  0.44619  Biso   1.000  C
  C67      1.0000 0.38858  0.11142  0.11142  Biso   1.000  C
  C68      1.0000 0.44619  0.05381  0.05381  Biso   1.000  C
  C69      1.0000 0.61142  0.88858  0.88858  Biso   1.000  C
  C70      1.0000 0.55381  0.94619  0.94619  Biso   1.000  C
  C71      1.0000 0.88858  0.61142  0.61142  Biso   1.000  C
  C72      1.0000 0.94619  0.55381  0.55381  Biso   1.000  C
  C73      1.0000 0.88858  0.88858  0.61142  Biso   1.000  C
  C74      1.0000 0.94619  0.94619  0.55381  Biso   1.000  C
  C75      1.0000 0.61142  0.61142  0.88858  Biso   1.000  C
  C76      1.0000 0.55381  0.55381  0.94619  Biso   1.000  C
  C77      1.0000 0.61142  0.88858  0.61142  Biso   1.000  C
  C78      1.0000 0.55381  0.94619  0.55381  Biso   1.000  C
  C79      1.0000 0.88858  0.61142  0.88858  Biso   1.000  C
  C80      1.0000 0.94619  0.55381  0.94619  Biso   1.000  C
  C81      1.0000 0.25000  0.25000  0.25000  Biso   1.000  C
  C82      1.0000 0.75000  0.75000  0.75000  Biso   1.000  C
  C83      1.0000 0.13369  0.42773  0.13369  Biso   1.000  C
  C84      1.0000 0.42773  0.13369  0.30489  Biso   1.000  C
  C85      1.0000 0.13369  0.30489  0.13369  Biso   1.000  C
  C86      1.0000 0.30489  0.13369  0.42773  Biso   1.000  C
  C87      1.0000 0.13369  0.13369  0.30489  Biso   1.000  C
  C88      1.0000 0.42773  0.30489  0.13369  Biso   1.000  C
  C89      1.0000 0.13369  0.13369  0.42773  Biso   1.000  C
  C90      1.0000 0.30489  0.42773  0.13369  Biso   1.000  C
  C91      1.0000 0.13369  0.30489  0.42773  Biso   1.000  C
  C92      1.0000 0.42773  0.13369  0.13369  Biso   1.000  C
  C93      1.0000 0.13369  0.42773  0.30489  Biso   1.000  C
  C94      1.0000 0.30489  0.13369  0.13369  Biso   1.000  C
  C95      1.0000 0.57227  0.86631  0.86631  Biso   1.000  C
  C96      1.0000 0.86631  0.57227  0.69511  Biso   1.000  C
  C97      1.0000 0.69511  0.86631  0.86631  Biso   1.000  C
  C98      1.0000 0.86631  0.69511  0.57227  Biso   1.000  C
  C99      1.0000 0.86631  0.86631  0.69511  Biso   1.000  C
  C100     1.0000 0.69511  0.57227  0.86631  Biso   1.000  C
  C101     1.0000 0.86631  0.86631  0.57227  Biso   1.000  C
  C102     1.0000 0.57227  0.69511  0.86631  Biso   1.000  C
  C103     1.0000 0.69511  0.86631  0.57227  Biso   1.000  C
  C104     1.0000 0.86631  0.57227  0.86631  Biso   1.000  C
  C105     1.0000 0.57227  0.86631  0.69511  Biso   1.000  C
  C106     1.0000 0.86631  0.69511  0.86631  Biso   1.000  C
  O1       1.0000 0.00000  0.00000  0.00000  Biso   1.000  O
  O2       1.0000 1.00000  0.00000  0.17356  Biso   1.000  O
  O3       1.0000 0.82644  0.00000  0.17356  Biso   1.000  O
  O4       1.0000 1.00000  0.82644  0.17356  Biso   1.000  O
  O5       1.0000 0.41070  0.41070  0.75783  Biso   1.000  O
  O6       1.0000 0.41070  0.41070  0.58426  Biso   1.000  O
  O7       1.0000 0.41070  0.58426  0.58426  Biso   1.000  O
  O8       1.0000 0.58426  0.41070  0.58426  Biso   1.000  O
  O9       1.0000 0.16137  0.16137  0.81371  Biso   1.000  O
  O10      1.0000 0.16137  0.16137  0.03207  Biso   1.000  O
  O11      1.0000 0.64015  0.85851  0.33494  Biso   1.000  O
  O12      1.0000 0.85851  0.64015  0.33494  Biso   1.000  O
  O13      1.0000 0.16137  0.64015  0.03207  Biso   1.000  O
  O14      1.0000 0.16137  0.85851  0.81371  Biso   1.000  O
  O15      1.0000 0.64015  0.16137  0.33494  Biso   1.000  O
  O16      1.0000 0.85851  0.16137  0.33494  Biso   1.000  O
  O17      1.0000 0.16137  0.85851  0.33494  Biso   1.000  O
  O18      1.0000 0.16137  0.64015  0.33494  Biso   1.000  O
  O19      1.0000 0.64015  0.16137  0.03207  Biso   1.000  O
  O20      1.0000 0.85851  0.16137  0.81371  Biso   1.000  O
  O21      1.0000 0.24933  0.24933  0.94411  Biso   1.000  O
  O22      1.0000 0.24933  0.24933  0.72576  Biso   1.000  O
  O23      1.0000 0.55220  0.77055  0.42289  Biso   1.000  O
  O24      1.0000 0.77055  0.55220  0.42289  Biso   1.000  O
  O25      1.0000 0.77055  0.24933  0.72576  Biso   1.000  O
  O26      1.0000 0.55220  0.24933  0.94411  Biso   1.000  O
  O27      1.0000 0.24933  0.77055  0.42289  Biso   1.000  O
  O28      1.0000 0.24933  0.55220  0.42289  Biso   1.000  O
  O29      1.0000 0.55220  0.24933  0.42289  Biso   1.000  O
  O30      1.0000 0.77055  0.24933  0.42289  Biso   1.000  O
  O31      1.0000 0.24933  0.77055  0.72576  Biso   1.000  O
  O32      1.0000 0.24933  0.55220  0.94411  Biso   1.000  O
  O33      1.0000 0.17898  0.17898  0.84048  Biso   1.000  O
  O34      1.0000 0.17898  0.17898  0.97008  Biso   1.000  O
  O35      1.0000 0.66692  0.79652  0.35255  Biso   1.000  O
  O36      1.0000 0.79652  0.66692  0.35255  Biso   1.000  O
  O37      1.0000 0.17898  0.66692  0.97008  Biso   1.000  O
  O38      1.0000 0.17898  0.79652  0.84048  Biso   1.000  O
  O39      1.0000 0.66692  0.17898  0.35255  Biso   1.000  O
  O40      1.0000 0.79652  0.17898  0.35255  Biso   1.000  O
  O41      1.0000 0.17898  0.79652  0.35255  Biso   1.000  O
  O42      1.0000 0.17898  0.66692  0.35255  Biso   1.000  O
  O43      1.0000 0.66692  0.17898  0.97008  Biso   1.000  O
  O44      1.0000 0.79652  0.17898  0.84048  Biso   1.000  O
  O45      1.0000 0.23172  0.23172  0.91735  Biso   1.000  O
  O46      1.0000 0.23172  0.23172  0.78774  Biso   1.000  O
  O47      1.0000 0.61418  0.74379  0.40528  Biso   1.000  O
  O48      1.0000 0.74379  0.61418  0.40528  Biso   1.000  O
  O49      1.0000 0.74379  0.23172  0.78774  Biso   1.000  O
  O50      1.0000 0.61418  0.23172  0.91735  Biso   1.000  O
  O51      1.0000 0.23172  0.74379  0.40528  Biso   1.000  O
  O52      1.0000 0.23172  0.61418  0.40528  Biso   1.000  O
  O53      1.0000 0.61418  0.23172  0.40528  Biso   1.000  O
  O54      1.0000 0.74379  0.23172  0.40528  Biso   1.000  O
  O55      1.0000 0.23172  0.74379  0.78774  Biso   1.000  O
  O56      1.0000 0.23172  0.61418  0.91735  Biso   1.000  O
  O57      1.0000 0.09441  0.09441  0.99237  Biso   1.000  O
  O58      1.0000 0.15222  0.15222  0.93456  Biso   1.000  O
  O59      1.0000 0.81881  0.81881  0.26797  Biso   1.000  O
  O60      1.0000 0.76100  0.76100  0.32578  Biso   1.000  O
  O61      1.0000 0.09441  0.81881  0.99237  Biso   1.000  O
  O62      1.0000 0.15222  0.76100  0.93456  Biso   1.000  O
  O63      1.0000 0.81881  0.09441  0.26797  Biso   1.000  O
  O64      1.0000 0.76100  0.15222  0.32578  Biso   1.000  O
  O65      1.0000 0.09441  0.81881  0.26797  Biso   1.000  O
  O66      1.0000 0.15222  0.76100  0.32578  Biso   1.000  O
  O67      1.0000 0.81881  0.09441  0.99237  Biso   1.000  O
  O68      1.0000 0.76100  0.15222  0.93456  Biso   1.000  O
  O69      1.0000 0.31629  0.31629  0.76546  Biso   1.000  O
  O70      1.0000 0.25848  0.25848  0.82326  Biso   1.000  O
  O71      1.0000 0.59189  0.59189  0.48985  Biso   1.000  O
  O72      1.0000 0.64970  0.64970  0.43204  Biso   1.000  O
  O73      1.0000 0.59189  0.31629  0.76546  Biso   1.000  O
  O74      1.0000 0.64970  0.25848  0.82326  Biso   1.000  O
  O75      1.0000 0.31629  0.59189  0.48985  Biso   1.000  O
  O76      1.0000 0.25848  0.64970  0.43204  Biso   1.000  O
  O77      1.0000 0.59189  0.31629  0.48985  Biso   1.000  O
  O78      1.0000 0.64970  0.25848  0.43204  Biso   1.000  O
  O79      1.0000 0.31629  0.59189  0.76546  Biso   1.000  O
  O80      1.0000 0.25848  0.64970  0.82326  Biso   1.000  O
  O81      1.0000 0.95661  0.95661  0.13017  Biso   1.000  O
  O82      1.0000 0.45409  0.45409  0.62765  Biso   1.000  O
  O83      1.0000 0.07212  0.07212  0.95457  Biso   1.000  O
  O84      1.0000 0.07212  0.07212  0.07476  Biso   1.000  O
  O85      1.0000 0.78101  0.90120  0.24568  Biso   1.000  O
  O86      1.0000 0.90120  0.78101  0.24568  Biso   1.000  O
  O87      1.0000 0.07212  0.78101  0.07476  Biso   1.000  O
  O88      1.0000 0.07212  0.90120  0.95457  Biso   1.000  O
  O89      1.0000 0.78101  0.07212  0.24568  Biso   1.000  O
  O90      1.0000 0.90120  0.07212  0.24568  Biso   1.000  O
  O91      1.0000 0.07212  0.90120  0.24568  Biso   1.000  O
  O92      1.0000 0.07212  0.78101  0.24568  Biso   1.000  O
  O93      1.0000 0.78101  0.07212  0.07476  Biso   1.000  O
  O94      1.0000 0.90120  0.07212  0.95457  Biso   1.000  O
  O95      1.0000 0.33859  0.33859  0.80326  Biso   1.000  O
  O96      1.0000 0.33859  0.33859  0.68306  Biso   1.000  O
  O97      1.0000 0.50950  0.62969  0.51215  Biso   1.000  O
  O98      1.0000 0.62969  0.50950  0.51215  Biso   1.000  O
  O99      1.0000 0.62969  0.33859  0.68306  Biso   1.000  O
  O100     1.0000 0.50950  0.33859  0.80326  Biso   1.000  O
  O101     1.0000 0.33859  0.62969  0.51215  Biso   1.000  O
  O102     1.0000 0.33859  0.50950  0.51215  Biso   1.000  O
  O103     1.0000 0.50950  0.33859  0.51215  Biso   1.000  O
  O104     1.0000 0.62969  0.33859  0.51215  Biso   1.000  O
  O105     1.0000 0.33859  0.62969  0.68306  Biso   1.000  O
