data_image0
_cell_length_a       18.283
_cell_length_b       18.283
_cell_length_c       18.283
_cell_angle_alpha    60
_cell_angle_beta     60
_cell_angle_gamma    60

_symmetry_space_group_name_H-M    "P 1"
_symmetry_int_tables_number       1

loop_
  _symmetry_equiv_pos_as_xyz
  'x, y, z'

loop_
  _atom_site_label
  _atom_site_occupancy
  _atom_site_fract_x
  _atom_site_fract_y
  _atom_site_fract_z
  _atom_site_thermal_displace_type
  _atom_site_B_iso_or_equiv
  _atom_site_type_symbol
  C1       1.0000 0.20657  0.38031  0.20656  Biso   1.000  C
  C2       1.0000 0.38032  0.20656  0.20656  Biso   1.000  C
  C3       1.0000 0.20657  0.20656  0.20656  Biso   1.000  C
  C4       1.0000 0.20657  0.20656  0.38031  Biso   1.000  C
  C5       1.0000 0.61968  0.79344  0.79344  Biso   1.000  C
  C6       1.0000 0.79343  0.61969  0.79344  Biso   1.000  C
  C7       1.0000 0.79343  0.79344  0.79344  Biso   1.000  C
  C8       1.0000 0.79343  0.79344  0.61969  Biso   1.000  C
  C9       1.0000 0.04500  0.56540  0.04500  Biso   1.000  C
  C10      1.0000 0.56540  0.04500  0.34460  Biso   1.000  C
  C11      1.0000 0.04500  0.34460  0.04500  Biso   1.000  C
  C12      1.0000 0.34460  0.04500  0.56540  Biso   1.000  C
  C13      1.0000 0.04500  0.04500  0.34460  Biso   1.000  C
  C14      1.0000 0.56540  0.34460  0.04500  Biso   1.000  C
  C15      1.0000 0.04500  0.04500  0.56540  Biso   1.000  C
  C16      1.0000 0.34460  0.56540  0.04500  Biso   1.000  C
  C17      1.0000 0.04500  0.34460  0.56540  Biso   1.000  C
  C18      1.0000 0.56540  0.04500  0.04500  Biso   1.000  C
  C19      1.0000 0.04500  0.56540  0.34460  Biso   1.000  C
  C20      1.0000 0.34460  0.04500  0.04500  Biso   1.000  C
  C21      1.0000 0.43460  0.95500  0.95500  Biso   1.000  C
  C22      1.0000 0.95500  0.43460  0.65540  Biso   1.000  C
  C23      1.0000 0.65540  0.95500  0.95500  Biso   1.000  C
  C24      1.0000 0.95500  0.65540  0.43460  Biso   1.000  C
  C25      1.0000 0.95500  0.95500  0.65540  Biso   1.000  C
  C26      1.0000 0.65540  0.43460  0.95500  Biso   1.000  C
  C27      1.0000 0.95500  0.95500  0.43460  Biso   1.000  C
  C28      1.0000 0.43460  0.65540  0.95500  Biso   1.000  C
  C29      1.0000 0.65540  0.95500  0.43460  Biso   1.000  C
  C30      1.0000 0.95500  0.43460  0.95500  Biso   1.000  C
  C31      1.0000 0.43460  0.95500  0.65540  Biso   1.000  C
  C32      1.0000 0.95500  0.65540  0.95500  Biso   1.000  C
  C33      1.0000 0.02670  0.53864  0.02670  Biso   1.000  C
  C34      1.0000 0.53864  0.02670  0.40796  Biso   1.000  C
  C35      1.0000 0.02670  0.40796  0.02670  Biso   1.000  C
  C36      1.0000 0.40796  0.02670  0.53864  Biso   1.000  C
  C37      1.0000 0.02670  0.02670  0.40796  Biso   1.000  C
  C38      1.0000 0.53864  0.40796  0.02670  Biso   1.000  C
  C39      1.0000 0.02670  0.02670  0.53864  Biso   1.000  C
  C40      1.0000 0.40796  0.53864  0.02670  Biso   1.000  C
  C41      1.0000 0.02670  0.40796  0.53864  Biso   1.000  C
  C42      1.0000 0.53864  0.02670  0.02670  Biso   1.000  C
  C43      1.0000 0.02670  0.53864  0.40796  Biso   1.000  C
  C44      1.0000 0.40796  0.02670  0.02670  Biso   1.000  C
  C45      1.0000 0.46136  0.97330  0.97330  Biso   1.000  C
  C46      1.0000 0.97330  0.46136  0.59204  Biso   1.000  C
  C47      1.0000 0.59204  0.97330  0.97330  Biso   1.000  C
  C48      1.0000 0.97330  0.59204  0.46136  Biso   1.000  C
  C49      1.0000 0.97330  0.97330  0.59204  Biso   1.000  C
  C50      1.0000 0.59204  0.46136  0.97330  Biso   1.000  C
  C51      1.0000 0.97330  0.97330  0.46136  Biso   1.000  C
  C52      1.0000 0.46136  0.59204  0.97330  Biso   1.000  C
  C53      1.0000 0.59204  0.97330  0.46136  Biso   1.000  C
  C54      1.0000 0.97330  0.46136  0.97330  Biso   1.000  C
  C55      1.0000 0.46136  0.97330  0.59204  Biso   1.000  C
  C56      1.0000 0.97330  0.59204  0.97330  Biso   1.000  C
  C57      1.0000 0.11148  0.38852  0.11148  Biso   1.000  C
  C58      1.0000 0.05372  0.44628  0.05372  Biso   1.000  C
  C59      1.0000 0.38852  0.11148  0.38852  Biso   1.000  C
  C60      1.0000 0.44628  0.05372  0.44628  Biso   1.000  C
  C61      1.0000 0.11148  0.11148  0.38852  Biso   1.000  C
  C62      1.0000 0.05372  0.05372  0.44628  Biso   1.000  C
  C63      1.0000 0.38852  0.38852  0.11148  Biso   1.000  C
  C64      1.0000 0.44628  0.44628  0.05372  Biso   1.000  C
  C65      1.0000 0.11148  0.38852  0.38852  Biso   1.000  C
  C66      1.0000 0.05372  0.44628  0.44628  Biso   1.000  C
  C67      1.0000 0.38852  0.11148  0.11148  Biso   1.000  C
  C68      1.0000 0.44628  0.05372  0.05372  Biso   1.000  C
  C69      1.0000 0.61148  0.88852  0.88852  Biso   1.000  C
  C70      1.0000 0.55372  0.94628  0.94628  Biso   1.000  C
  C71      1.0000 0.88852  0.61148  0.61148  Biso   1.000  C
  C72      1.0000 0.94628  0.55372  0.55372  Biso   1.000  C
  C73      1.0000 0.88852  0.88852  0.61148  Biso   1.000  C
  C74      1.0000 0.94628  0.94628  0.55372  Biso   1.000  C
  C75      1.0000 0.61148  0.61148  0.88852  Biso   1.000  C
  C76      1.0000 0.55372  0.55372  0.94628  Biso   1.000  C
  C77      1.0000 0.61148  0.88852  0.61148  Biso   1.000  C
  C78      1.0000 0.55372  0.94628  0.55372  Biso   1.000  C
  C79      1.0000 0.88852  0.61148  0.88852  Biso   1.000  C
  C80      1.0000 0.94628  0.55372  0.94628  Biso   1.000  C
  C81      1.0000 0.25000  0.25000  0.25000  Biso   1.000  C
  C82      1.0000 0.75000  0.75000  0.75000  Biso   1.000  C
  C83      1.0000 0.13373  0.42751  0.13373  Biso   1.000  C
  C84      1.0000 0.42751  0.13373  0.30503  Biso   1.000  C
  C85      1.0000 0.13373  0.30503  0.13373  Biso   1.000  C
  C86      1.0000 0.30503  0.13373  0.42751  Biso   1.000  C
  C87      1.0000 0.13373  0.13373  0.30503  Biso   1.000  C
  C88      1.0000 0.42751  0.30503  0.13373  Biso   1.000  C
  C89      1.0000 0.13373  0.13373  0.42751  Biso   1.000  C
  C90      1.0000 0.30503  0.42751  0.13373  Biso   1.000  C
  C91      1.0000 0.13373  0.30503  0.42751  Biso   1.000  C
  C92      1.0000 0.42751  0.13373  0.13373  Biso   1.000  C
  C93      1.0000 0.13373  0.42751  0.30503  Biso   1.000  C
  C94      1.0000 0.30503  0.13373  0.13373  Biso   1.000  C
  C95      1.0000 0.57249  0.86627  0.86627  Biso   1.000  C
  C96      1.0000 0.86627  0.57249  0.69497  Biso   1.000  C
  C97      1.0000 0.69497  0.86627  0.86627  Biso   1.000  C
  C98      1.0000 0.86627  0.69497  0.57249  Biso   1.000  C
  C99      1.0000 0.86627  0.86627  0.69497  Biso   1.000  C
  C100     1.0000 0.69497  0.57249  0.86627  Biso   1.000  C
  C101     1.0000 0.86627  0.86627  0.57249  Biso   1.000  C
  C102     1.0000 0.57249  0.69497  0.86627  Biso   1.000  C
  C103     1.0000 0.69497  0.86627  0.57249  Biso   1.000  C
  C104     1.0000 0.86627  0.57249  0.86627  Biso   1.000  C
  C105     1.0000 0.57249  0.86627  0.69497  Biso   1.000  C
  C106     1.0000 0.86627  0.69497  0.86627  Biso   1.000  C
  O1       1.0000 0.00000  0.00000  0.00000  Biso   1.000  O
  O2       1.0000 0.00000  1.00000  0.17339  Biso   1.000  O
  O3       1.0000 0.82661  1.00000  0.17339  Biso   1.000  O
  O4       1.0000 1.00000  0.82661  0.17339  Biso   1.000  O
  O5       1.0000 0.41714  0.41716  0.76393  Biso   1.000  O
  O6       1.0000 0.41714  0.41716  0.59054  Biso   1.000  O
  O7       1.0000 0.41714  0.59054  0.59054  Biso   1.000  O
  O8       1.0000 0.59052  0.41716  0.59054  Biso   1.000  O
  O9       1.0000 0.86327  0.16058  0.81558  Biso   1.000  O
  O10      1.0000 0.16057  0.86328  0.33396  Biso   1.000  O
  O11      1.0000 0.64218  0.16058  0.03667  Biso   1.000  O
  O12      1.0000 0.16057  0.64219  0.33396  Biso   1.000  O
  O13      1.0000 0.86327  0.64219  0.33396  Biso   1.000  O
  O14      1.0000 0.16057  0.16058  0.81558  Biso   1.000  O
  O15      1.0000 0.64218  0.86328  0.33396  Biso   1.000  O
  O16      1.0000 0.16057  0.16058  0.03667  Biso   1.000  O
  O17      1.0000 0.86327  0.16058  0.33396  Biso   1.000  O
  O18      1.0000 0.16057  0.64219  0.03667  Biso   1.000  O
  O19      1.0000 0.64218  0.16058  0.33396  Biso   1.000  O
  O20      1.0000 0.16057  0.86328  0.81558  Biso   1.000  O
  O21      1.0000 0.25657  0.55388  0.94835  Biso   1.000  O
  O22      1.0000 0.55387  0.25658  0.42997  Biso   1.000  O
  O23      1.0000 0.25657  0.77496  0.72726  Biso   1.000  O
  O24      1.0000 0.77495  0.25658  0.42997  Biso   1.000  O
  O25      1.0000 0.77495  0.55388  0.42997  Biso   1.000  O
  O26      1.0000 0.25657  0.25658  0.94835  Biso   1.000  O
  O27      1.0000 0.55387  0.77496  0.42997  Biso   1.000  O
  O28      1.0000 0.25657  0.25658  0.72726  Biso   1.000  O
  O29      1.0000 0.25657  0.55388  0.42997  Biso   1.000  O
  O30      1.0000 0.77495  0.25658  0.72726  Biso   1.000  O
  O31      1.0000 0.25657  0.77496  0.42997  Biso   1.000  O
  O32      1.0000 0.55387  0.25658  0.94835  Biso   1.000  O
  O33      1.0000 0.79997  0.17890  0.84222  Biso   1.000  O
  O34      1.0000 0.17889  0.79998  0.35229  Biso   1.000  O
  O35      1.0000 0.66883  0.17890  0.97337  Biso   1.000  O
  O36      1.0000 0.17889  0.66884  0.35229  Biso   1.000  O
  O37      1.0000 0.79997  0.66884  0.35229  Biso   1.000  O
  O38      1.0000 0.17889  0.17890  0.84222  Biso   1.000  O
  O39      1.0000 0.66883  0.79998  0.35229  Biso   1.000  O
  O40      1.0000 0.17889  0.17890  0.97337  Biso   1.000  O
  O41      1.0000 0.79997  0.17890  0.35229  Biso   1.000  O
  O42      1.0000 0.17889  0.66884  0.97337  Biso   1.000  O
  O43      1.0000 0.66883  0.17890  0.35229  Biso   1.000  O
  O44      1.0000 0.17889  0.79998  0.84222  Biso   1.000  O
  O45      1.0000 0.23824  0.61718  0.92171  Biso   1.000  O
  O46      1.0000 0.61717  0.23825  0.41164  Biso   1.000  O
  O47      1.0000 0.23824  0.74832  0.79056  Biso   1.000  O
  O48      1.0000 0.74831  0.23825  0.41164  Biso   1.000  O
  O49      1.0000 0.74831  0.61718  0.41164  Biso   1.000  O
  O50      1.0000 0.23824  0.23825  0.92171  Biso   1.000  O
  O51      1.0000 0.61717  0.74832  0.41164  Biso   1.000  O
  O52      1.0000 0.23824  0.23825  0.79056  Biso   1.000  O
  O53      1.0000 0.23824  0.61718  0.41164  Biso   1.000  O
  O54      1.0000 0.74831  0.23825  0.79056  Biso   1.000  O
  O55      1.0000 0.23824  0.74832  0.41164  Biso   1.000  O
  O56      1.0000 0.61717  0.23825  0.92171  Biso   1.000  O
  O57      1.0000 0.76136  0.15194  0.93476  Biso   1.000  O
  O58      1.0000 0.81931  0.09399  0.99271  Biso   1.000  O
  O59      1.0000 0.15193  0.76137  0.32533  Biso   1.000  O
  O60      1.0000 0.09398  0.81932  0.26738  Biso   1.000  O
  O61      1.0000 0.76136  0.76137  0.32533  Biso   1.000  O
  O62      1.0000 0.81931  0.81932  0.26738  Biso   1.000  O
  O63      1.0000 0.15193  0.15194  0.93476  Biso   1.000  O
  O64      1.0000 0.09398  0.09399  0.99271  Biso   1.000  O
  O65      1.0000 0.76136  0.15194  0.32533  Biso   1.000  O
  O66      1.0000 0.81931  0.09399  0.26738  Biso   1.000  O
  O67      1.0000 0.15193  0.76137  0.93476  Biso   1.000  O
  O68      1.0000 0.09398  0.81932  0.99271  Biso   1.000  O
  O69      1.0000 0.26520  0.65579  0.82917  Biso   1.000  O
  O70      1.0000 0.32316  0.59784  0.77122  Biso   1.000  O
  O71      1.0000 0.65578  0.26521  0.43860  Biso   1.000  O
  O72      1.0000 0.59783  0.32317  0.49655  Biso   1.000  O
  O73      1.0000 0.65578  0.65579  0.43860  Biso   1.000  O
  O74      1.0000 0.59783  0.59784  0.49655  Biso   1.000  O
  O75      1.0000 0.26520  0.26521  0.82917  Biso   1.000  O
  O76      1.0000 0.32316  0.32317  0.77122  Biso   1.000  O
  O77      1.0000 0.26520  0.65579  0.43860  Biso   1.000  O
  O78      1.0000 0.32316  0.59784  0.49655  Biso   1.000  O
  O79      1.0000 0.65578  0.26521  0.82917  Biso   1.000  O
  O80      1.0000 0.59783  0.32317  0.77122  Biso   1.000  O
  O81      1.0000 0.95665  0.95666  0.13004  Biso   1.000  O
  O82      1.0000 0.46049  0.46050  0.63389  Biso   1.000  O
  O83      1.0000 0.90514  0.07211  0.95064  Biso   1.000  O
  O84      1.0000 0.07210  0.90515  0.24550  Biso   1.000  O
  O85      1.0000 0.77725  0.07211  0.07853  Biso   1.000  O
  O86      1.0000 0.07210  0.77726  0.24550  Biso   1.000  O
  O87      1.0000 0.90514  0.77726  0.24550  Biso   1.000  O
  O88      1.0000 0.07210  0.07211  0.95064  Biso   1.000  O
  O89      1.0000 0.77725  0.90515  0.24550  Biso   1.000  O
  O90      1.0000 0.07210  0.07211  0.07853  Biso   1.000  O
  O91      1.0000 0.90514  0.07211  0.24550  Biso   1.000  O
  O92      1.0000 0.07210  0.77726  0.07853  Biso   1.000  O
  O93      1.0000 0.77725  0.07211  0.24550  Biso   1.000  O
  O94      1.0000 0.07210  0.90515  0.95064  Biso   1.000  O
  O95      1.0000 0.34504  0.51201  0.81329  Biso   1.000  O
  O96      1.0000 0.51200  0.34505  0.51843  Biso   1.000  O
  O97      1.0000 0.34504  0.63990  0.68540  Biso   1.000  O
  O98      1.0000 0.63989  0.34505  0.51843  Biso   1.000  O
  O99      1.0000 0.63989  0.51201  0.51843  Biso   1.000  O
  O100     1.0000 0.34504  0.34505  0.81329  Biso   1.000  O
  O101     1.0000 0.51200  0.63990  0.51843  Biso   1.000  O
  O102     1.0000 0.34504  0.34505  0.68540  Biso   1.000  O
  O103     1.0000 0.34504  0.51201  0.51843  Biso   1.000  O
  O104     1.0000 0.63989  0.34505  0.68540  Biso   1.000  O
  O105     1.0000 0.34504  0.63990  0.51843  Biso   1.000  O
