data_image0
_cell_length_a       18.2115
_cell_length_b       18.2115
_cell_length_c       18.2115
_cell_angle_alpha    60
_cell_angle_beta     60
_cell_angle_gamma    60

_symmetry_space_group_name_H-M    "P 1"
_symmetry_int_tables_number       1

loop_
  _symmetry_equiv_pos_as_xyz
  'x, y, z'

loop_
  _atom_site_label
  _atom_site_occupancy
  _atom_site_fract_x
  _atom_site_fract_y
  _atom_site_fract_z
  _atom_site_thermal_displace_type
  _atom_site_B_iso_or_equiv
  _atom_site_type_symbol
  Zn1      1.0000 0.29361  0.29361  0.11917  Biso   1.000  Zn
  Zn2      1.0000 0.29361  0.29361  0.29361  Biso   1.000  Zn
  Zn3      1.0000 0.11917  0.29361  0.29361  Biso   1.000  Zn
  Zn4      1.0000 0.29361  0.11917  0.29361  Biso   1.000  Zn
  Zn5      1.0000 0.70639  0.70639  0.88083  Biso   1.000  Zn
  Zn6      1.0000 0.70639  0.70639  0.70639  Biso   1.000  Zn
  Zn7      1.0000 0.70639  0.88083  0.70639  Biso   1.000  Zn
  Zn8      1.0000 0.88083  0.70639  0.70639  Biso   1.000  Zn
  H1       1.0000 0.45530  0.45530  0.93770  Biso   1.000  H
  H2       1.0000 0.45530  0.45530  0.15170  Biso   1.000  H
  H3       1.0000 0.93770  0.15170  0.45530  Biso   1.000  H
  H4       1.0000 0.15170  0.93770  0.45530  Biso   1.000  H
  H5       1.0000 0.45530  0.93770  0.15170  Biso   1.000  H
  H6       1.0000 0.45530  0.15170  0.93770  Biso   1.000  H
  H7       1.0000 0.93770  0.45530  0.45530  Biso   1.000  H
  H8       1.0000 0.15170  0.45530  0.45530  Biso   1.000  H
  H9       1.0000 0.45530  0.15170  0.45530  Biso   1.000  H
  H10      1.0000 0.45530  0.93770  0.45530  Biso   1.000  H
  H11      1.0000 0.93770  0.45530  0.15170  Biso   1.000  H
  H12      1.0000 0.15170  0.45530  0.93770  Biso   1.000  H
  H13      1.0000 0.54470  0.54470  0.06230  Biso   1.000  H
  H14      1.0000 0.54470  0.54470  0.84830  Biso   1.000  H
  H15      1.0000 0.84830  0.06230  0.54470  Biso   1.000  H
  H16      1.0000 0.06230  0.84830  0.54470  Biso   1.000  H
  H17      1.0000 0.06230  0.54470  0.84830  Biso   1.000  H
  H18      1.0000 0.84830  0.54470  0.06230  Biso   1.000  H
  H19      1.0000 0.54470  0.06230  0.54470  Biso   1.000  H
  H20      1.0000 0.54470  0.84830  0.54470  Biso   1.000  H
  H21      1.0000 0.84830  0.54470  0.54470  Biso   1.000  H
  H22      1.0000 0.06230  0.54470  0.54470  Biso   1.000  H
  H23      1.0000 0.54470  0.06230  0.84830  Biso   1.000  H
  H24      1.0000 0.54470  0.84830  0.06230  Biso   1.000  H
  C1       1.0000 0.47300  0.47300  0.96450  Biso   1.000  C
  C2       1.0000 0.47300  0.47300  0.08950  Biso   1.000  C
  C3       1.0000 0.96450  0.08950  0.47300  Biso   1.000  C
  C4       1.0000 0.08950  0.96450  0.47300  Biso   1.000  C
  C5       1.0000 0.47300  0.96450  0.08950  Biso   1.000  C
  C6       1.0000 0.47300  0.08950  0.96450  Biso   1.000  C
  C7       1.0000 0.96450  0.47300  0.47300  Biso   1.000  C
  C8       1.0000 0.08950  0.47300  0.47300  Biso   1.000  C
  C9       1.0000 0.47300  0.08950  0.47300  Biso   1.000  C
  C10      1.0000 0.47300  0.96450  0.47300  Biso   1.000  C
  C11      1.0000 0.96450  0.47300  0.08950  Biso   1.000  C
  C12      1.0000 0.08950  0.47300  0.96450  Biso   1.000  C
  C13      1.0000 0.52700  0.52700  0.03550  Biso   1.000  C
  C14      1.0000 0.52700  0.52700  0.91050  Biso   1.000  C
  C15      1.0000 0.91050  0.03550  0.52700  Biso   1.000  C
  C16      1.0000 0.03550  0.91050  0.52700  Biso   1.000  C
  C17      1.0000 0.03550  0.52700  0.91050  Biso   1.000  C
  C18      1.0000 0.91050  0.52700  0.03550  Biso   1.000  C
  C19      1.0000 0.52700  0.03550  0.52700  Biso   1.000  C
  C20      1.0000 0.52700  0.91050  0.52700  Biso   1.000  C
  C21      1.0000 0.91050  0.52700  0.52700  Biso   1.000  C
  C22      1.0000 0.03550  0.52700  0.52700  Biso   1.000  C
  C23      1.0000 0.52700  0.03550  0.91050  Biso   1.000  C
  C24      1.0000 0.52700  0.91050  0.03550  Biso   1.000  C
  C25      1.0000 0.38860  0.38860  0.11140  Biso   1.000  C
  C26      1.0000 0.44600  0.44600  0.05400  Biso   1.000  C
  C27      1.0000 0.11140  0.11140  0.38860  Biso   1.000  C
  C28      1.0000 0.05400  0.05400  0.44600  Biso   1.000  C
  C29      1.0000 0.38860  0.11140  0.11140  Biso   1.000  C
  C30      1.0000 0.44600  0.05400  0.05400  Biso   1.000  C
  C31      1.0000 0.11140  0.38860  0.38860  Biso   1.000  C
  C32      1.0000 0.05400  0.44600  0.44600  Biso   1.000  C
  C33      1.0000 0.38860  0.11140  0.38860  Biso   1.000  C
  C34      1.0000 0.44600  0.05400  0.44600  Biso   1.000  C
  C35      1.0000 0.11140  0.38860  0.11140  Biso   1.000  C
  C36      1.0000 0.05400  0.44600  0.05400  Biso   1.000  C
  C37      1.0000 0.61140  0.61140  0.88860  Biso   1.000  C
  C38      1.0000 0.55400  0.55400  0.94600  Biso   1.000  C
  C39      1.0000 0.88860  0.88860  0.61140  Biso   1.000  C
  C40      1.0000 0.94600  0.94600  0.55400  Biso   1.000  C
  C41      1.0000 0.88860  0.61140  0.88860  Biso   1.000  C
  C42      1.0000 0.94600  0.55400  0.94600  Biso   1.000  C
  C43      1.0000 0.61140  0.88860  0.61140  Biso   1.000  C
  C44      1.0000 0.55400  0.94600  0.55400  Biso   1.000  C
  C45      1.0000 0.88860  0.61140  0.61140  Biso   1.000  C
  C46      1.0000 0.94600  0.55400  0.55400  Biso   1.000  C
  C47      1.0000 0.61140  0.88860  0.88860  Biso   1.000  C
  C48      1.0000 0.55400  0.94600  0.94600  Biso   1.000  C
  O1       1.0000 0.25000  0.25000  0.25000  Biso   1.000  O
  O2       1.0000 0.75000  0.75000  0.75000  Biso   1.000  O
  O3       1.0000 0.36611  0.36611  0.07317  Biso   1.000  O
  O4       1.0000 0.36611  0.36611  0.19461  Biso   1.000  O
  O5       1.0000 0.07317  0.19461  0.36611  Biso   1.000  O
  O6       1.0000 0.19461  0.07317  0.36611  Biso   1.000  O
  O7       1.0000 0.36611  0.07317  0.19461  Biso   1.000  O
  O8       1.0000 0.36611  0.19461  0.07317  Biso   1.000  O
  O9       1.0000 0.07317  0.36611  0.36611  Biso   1.000  O
  O10      1.0000 0.19461  0.36611  0.36611  Biso   1.000  O
  O11      1.0000 0.36611  0.19461  0.36611  Biso   1.000  O
  O12      1.0000 0.36611  0.07317  0.36611  Biso   1.000  O
  O13      1.0000 0.07317  0.36611  0.19461  Biso   1.000  O
  O14      1.0000 0.19461  0.36611  0.07317  Biso   1.000  O
  O15      1.0000 0.63389  0.63389  0.92683  Biso   1.000  O
  O16      1.0000 0.63389  0.63389  0.80539  Biso   1.000  O
  O17      1.0000 0.80539  0.92683  0.63389  Biso   1.000  O
  O18      1.0000 0.92683  0.80539  0.63389  Biso   1.000  O
  O19      1.0000 0.92683  0.63389  0.80539  Biso   1.000  O
  O20      1.0000 0.80539  0.63389  0.92683  Biso   1.000  O
  O21      1.0000 0.63389  0.92683  0.63389  Biso   1.000  O
  O22      1.0000 0.63389  0.80539  0.63389  Biso   1.000  O
  O23      1.0000 0.80539  0.63389  0.63389  Biso   1.000  O
  O24      1.0000 0.92683  0.63389  0.63389  Biso   1.000  O
  O25      1.0000 0.63389  0.92683  0.80539  Biso   1.000  O
  O26      1.0000 0.63389  0.80539  0.92683  Biso   1.000  O
  Zn9      1.0000 0.16473  0.00000  0.00000  Biso   1.000  Zn
  Zn10     1.0000 0.57560  0.58900  0.41114  Biso   1.000  Zn
  Zn11     1.0000 0.57560  0.41373  0.41114  Biso   1.000  Zn
  Zn12     1.0000 0.16473  0.82473  0.00000  Biso   1.000  Zn
  Zn13     1.0000 0.16427  0.00034  0.82451  Biso   1.000  Zn
  Zn14     1.0000 0.98906  0.00015  0.00010  Biso   1.000  Zn
  Zn15     1.0000 0.57606  0.41339  0.58663  Biso   1.000  Zn
  Zn16     1.0000 0.75127  0.41358  0.41104  Biso   1.000  Zn
  H25      1.0000 0.32597  0.64693  0.85611  Biso   1.000  H
  H26      1.0000 0.32186  0.86000  0.64393  Biso   1.000  H
  H27      1.0000 0.02141  0.64802  0.16050  Biso   1.000  H
  H28      1.0000 0.80564  0.85747  0.16281  Biso   1.000  H
  H29      1.0000 0.32678  0.85947  0.15800  Biso   1.000  H
  H30      1.0000 0.41436  0.25328  0.55503  Biso   1.000  H
  H31      1.0000 0.41847  0.25006  0.76721  Biso   1.000  H
  H32      1.0000 0.71892  0.25419  0.25064  Biso   1.000  H
  H33      1.0000 0.93469  0.25018  0.24833  Biso   1.000  H
  H34      1.0000 0.41354  0.76852  0.25314  Biso   1.000  H
  H35      1.0000 0.41436  0.76680  0.55503  Biso   1.000  H
  H36      1.0000 0.41847  0.55373  0.76721  Biso   1.000  H
  H37      1.0000 0.71892  0.76571  0.25064  Biso   1.000  H
  H38      1.0000 0.93469  0.55626  0.24833  Biso   1.000  H
  H39      1.0000 0.41355  0.55426  0.25314  Biso   1.000  H
  H40      1.0000 0.32597  0.16045  0.85611  Biso   1.000  H
  H41      1.0000 0.32186  0.16367  0.64393  Biso   1.000  H
  H42      1.0000 0.02141  0.15954  0.16050  Biso   1.000  H
  H43      1.0000 0.80565  0.16354  0.16281  Biso   1.000  H
  H44      1.0000 0.32679  0.64521  0.15800  Biso   1.000  H
  H45      1.0000 0.80653  0.16236  0.85822  Biso   1.000  H
  H46      1.0000 0.02090  0.16347  0.64163  Biso   1.000  H
  H47      1.0000 0.93380  0.25137  0.55292  Biso   1.000  H
  H48      1.0000 0.71944  0.25026  0.76952  Biso   1.000  H
  C49      1.0000 0.25923  0.81619  0.81963  Biso   1.000  C
  C50      1.0000 0.31896  0.75797  0.75829  Biso   1.000  C
  C51      1.0000 0.34381  0.67269  0.79377  Biso   1.000  C
  C52      1.0000 0.34130  0.79776  0.66999  Biso   1.000  C
  C53      1.0000 0.97953  0.81938  0.09736  Biso   1.000  C
  C54      1.0000 0.92531  0.76075  0.15279  Biso   1.000  C
  C55      1.0000 0.95907  0.67428  0.17855  Biso   1.000  C
  C56      1.0000 0.83341  0.79533  0.18035  Biso   1.000  C
  C57      1.0000 0.34272  0.79723  0.17815  Biso   1.000  C
  C58      1.0000 0.48110  0.31932  0.59151  Biso   1.000  C
  C59      1.0000 0.42137  0.25948  0.65285  Biso   1.000  C
  C60      1.0000 0.39653  0.23453  0.61737  Biso   1.000  C
  C61      1.0000 0.39902  0.23332  0.74115  Biso   1.000  C
  C62      1.0000 0.76080  0.32054  0.31378  Biso   1.000  C
  C63      1.0000 0.81502  0.26311  0.25835  Biso   1.000  C
  C64      1.0000 0.78126  0.23615  0.23260  Biso   1.000  C
  C65      1.0000 0.90692  0.23335  0.23079  Biso   1.000  C
  C66      1.0000 0.39761  0.74236  0.23300  Biso   1.000  C
  C67      1.0000 0.48110  0.59754  0.59151  Biso   1.000  C
  C68      1.0000 0.42137  0.65576  0.65285  Biso   1.000  C
  C69      1.0000 0.39652  0.74104  0.61737  Biso   1.000  C
  C70      1.0000 0.39903  0.61597  0.74115  Biso   1.000  C
  C71      1.0000 0.76081  0.59434  0.31378  Biso   1.000  C
  C72      1.0000 0.81502  0.65298  0.25835  Biso   1.000  C
  C73      1.0000 0.78126  0.73945  0.23260  Biso   1.000  C
  C74      1.0000 0.90693  0.61840  0.23079  Biso   1.000  C
  C75      1.0000 0.39761  0.61650  0.23300  Biso   1.000  C
  C76      1.0000 0.25923  0.09441  0.81963  Biso   1.000  C
  C77      1.0000 0.31896  0.15424  0.75829  Biso   1.000  C
  C78      1.0000 0.34380  0.17920  0.79377  Biso   1.000  C
  C79      1.0000 0.34131  0.18041  0.66999  Biso   1.000  C
  C80      1.0000 0.97953  0.09319  0.09736  Biso   1.000  C
  C81      1.0000 0.92531  0.15062  0.15279  Biso   1.000  C
  C82      1.0000 0.95907  0.17757  0.17855  Biso   1.000  C
  C83      1.0000 0.83341  0.18038  0.18035  Biso   1.000  C
  C84      1.0000 0.34272  0.67137  0.17815  Biso   1.000  C
  C85      1.0000 0.98623  0.09521  0.81281  Biso   1.000  C
  C86      1.0000 0.92389  0.15254  0.76050  Biso   1.000  C
  C87      1.0000 0.83379  0.17980  0.79608  Biso   1.000  C
  C88      1.0000 0.95866  0.18101  0.66879  Biso   1.000  C
  C89      1.0000 0.25774  0.82119  0.08934  Biso   1.000  C
  C90      1.0000 0.31788  0.75935  0.15289  Biso   1.000  C
  C91      1.0000 0.75410  0.31852  0.59833  Biso   1.000  C
  C92      1.0000 0.81644  0.26119  0.65065  Biso   1.000  C
  C93      1.0000 0.90654  0.23393  0.61506  Biso   1.000  C
  C94      1.0000 0.78167  0.23272  0.74235  Biso   1.000  C
  C95      1.0000 0.48259  0.59254  0.32180  Biso   1.000  C
  C96      1.0000 0.42245  0.65438  0.25825  Biso   1.000  C
  O27      1.0000 0.23908  0.90178  0.77363  Biso   1.000  O
  O28      1.0000 0.24039  0.77219  0.90402  Biso   1.000  O
  O29      1.0000 0.93954  0.90277  0.07080  Biso   1.000  O
  O30      1.0000 0.06602  0.77519  0.07481  Biso   1.000  O
  O31      1.0000 0.23860  0.90377  0.07200  Biso   1.000  O
  O32      1.0000 0.50125  0.33876  0.63752  Biso   1.000  O
  O33      1.0000 0.49994  0.34087  0.50712  Biso   1.000  O
  O34      1.0000 0.80079  0.33737  0.34034  Biso   1.000  O
  O35      1.0000 0.67431  0.34028  0.33633  Biso   1.000  O
  O36      1.0000 0.50173  0.63864  0.33914  Biso   1.000  O
  O37      1.0000 0.50125  0.51194  0.63752  Biso   1.000  O
  O38      1.0000 0.49994  0.64154  0.50712  Biso   1.000  O
  O39      1.0000 0.80080  0.51096  0.34034  Biso   1.000  O
  O40      1.0000 0.67432  0.63854  0.33633  Biso   1.000  O
  O41      1.0000 0.50173  0.50996  0.33914  Biso   1.000  O
  O42      1.0000 0.23908  0.07497  0.77363  Biso   1.000  O
  O43      1.0000 0.24039  0.07286  0.90402  Biso   1.000  O
  O44      1.0000 0.93954  0.07636  0.07080  Biso   1.000  O
  O45      1.0000 0.06602  0.07345  0.07481  Biso   1.000  O
  O46      1.0000 0.23860  0.77509  0.07200  Biso   1.000  O
  O47      1.0000 0.12143  0.95609  0.95584  Biso   1.000  O
  O48      1.0000 0.06720  0.07397  0.77433  Biso   1.000  O
  O49      1.0000 0.94093  0.07626  0.89600  Biso   1.000  O
  O50      1.0000 0.61890  0.45763  0.45530  Biso   1.000  O
  O51      1.0000 0.67313  0.33976  0.63681  Biso   1.000  O
