data_image0
_cell_length_a       18.3017
_cell_length_b       18.3017
_cell_length_c       18.3017
_cell_angle_alpha    60
_cell_angle_beta     60
_cell_angle_gamma    60

_symmetry_space_group_name_H-M    "P 1"
_symmetry_int_tables_number       1

loop_
  _symmetry_equiv_pos_as_xyz
  'x, y, z'

loop_
  _atom_site_label
  _atom_site_occupancy
  _atom_site_fract_x
  _atom_site_fract_y
  _atom_site_fract_z
  _atom_site_thermal_displace_type
  _atom_site_B_iso_or_equiv
  _atom_site_type_symbol
  C1       1.0000 0.29342  0.29343  0.11972  Biso   1.000  C
  C2       1.0000 0.29343  0.29342  0.29343  Biso   1.000  C
  C3       1.0000 0.11972  0.29343  0.29342  Biso   1.000  C
  C4       1.0000 0.29343  0.11972  0.29343  Biso   1.000  C
  C5       1.0000 0.70657  0.70658  0.88028  Biso   1.000  C
  C6       1.0000 0.70657  0.70658  0.70657  Biso   1.000  C
  C7       1.0000 0.70658  0.88028  0.70657  Biso   1.000  C
  C8       1.0000 0.88029  0.70657  0.70657  Biso   1.000  C
  C9       1.0000 0.45510  0.45510  0.93470  Biso   1.000  C
  C10      1.0000 0.45510  0.45510  0.15510  Biso   1.000  C
  C11      1.0000 0.93470  0.15510  0.45510  Biso   1.000  C
  C12      1.0000 0.15510  0.93470  0.45510  Biso   1.000  C
  C13      1.0000 0.45510  0.93470  0.15510  Biso   1.000  C
  C14      1.0000 0.45510  0.15510  0.93470  Biso   1.000  C
  C15      1.0000 0.93470  0.45510  0.45510  Biso   1.000  C
  C16      1.0000 0.15510  0.45510  0.45510  Biso   1.000  C
  C17      1.0000 0.45510  0.15510  0.45510  Biso   1.000  C
  C18      1.0000 0.45510  0.93470  0.45510  Biso   1.000  C
  C19      1.0000 0.93470  0.45510  0.15510  Biso   1.000  C
  C20      1.0000 0.15510  0.45510  0.93470  Biso   1.000  C
  C21      1.0000 0.54490  0.54490  0.06530  Biso   1.000  C
  C22      1.0000 0.54490  0.54490  0.84490  Biso   1.000  C
  C23      1.0000 0.84490  0.06530  0.54490  Biso   1.000  C
  C24      1.0000 0.06530  0.84490  0.54490  Biso   1.000  C
  C25      1.0000 0.06530  0.54490  0.84490  Biso   1.000  C
  C26      1.0000 0.84490  0.54490  0.06530  Biso   1.000  C
  C27      1.0000 0.54490  0.06530  0.54490  Biso   1.000  C
  C28      1.0000 0.54490  0.84490  0.54490  Biso   1.000  C
  C29      1.0000 0.84490  0.54490  0.54490  Biso   1.000  C
  C30      1.0000 0.06530  0.54490  0.54490  Biso   1.000  C
  C31      1.0000 0.54490  0.06530  0.84490  Biso   1.000  C
  C32      1.0000 0.54490  0.84490  0.06530  Biso   1.000  C
  C33      1.0000 0.47334  0.47334  0.96156  Biso   1.000  C
  C34      1.0000 0.47334  0.47334  0.09176  Biso   1.000  C
  C35      1.0000 0.96156  0.09176  0.47334  Biso   1.000  C
  C36      1.0000 0.09176  0.96156  0.47334  Biso   1.000  C
  C37      1.0000 0.47334  0.96156  0.09176  Biso   1.000  C
  C38      1.0000 0.47334  0.09176  0.96156  Biso   1.000  C
  C39      1.0000 0.96156  0.47334  0.47334  Biso   1.000  C
  C40      1.0000 0.09176  0.47334  0.47334  Biso   1.000  C
  C41      1.0000 0.47334  0.09176  0.47334  Biso   1.000  C
  C42      1.0000 0.47334  0.96156  0.47334  Biso   1.000  C
  C43      1.0000 0.96156  0.47334  0.09176  Biso   1.000  C
  C44      1.0000 0.09176  0.47334  0.96156  Biso   1.000  C
  C45      1.0000 0.52666  0.52666  0.03844  Biso   1.000  C
  C46      1.0000 0.52666  0.52666  0.90824  Biso   1.000  C
  C47      1.0000 0.90824  0.03844  0.52666  Biso   1.000  C
  C48      1.0000 0.03844  0.90824  0.52666  Biso   1.000  C
  C49      1.0000 0.03844  0.52666  0.90824  Biso   1.000  C
  C50      1.0000 0.90824  0.52666  0.03844  Biso   1.000  C
  C51      1.0000 0.52666  0.03844  0.52666  Biso   1.000  C
  C52      1.0000 0.52666  0.90824  0.52666  Biso   1.000  C
  C53      1.0000 0.90824  0.52666  0.52666  Biso   1.000  C
  C54      1.0000 0.03844  0.52666  0.52666  Biso   1.000  C
  C55      1.0000 0.52666  0.03844  0.90824  Biso   1.000  C
  C56      1.0000 0.52666  0.90824  0.03844  Biso   1.000  C
  C57      1.0000 0.38843  0.38843  0.11157  Biso   1.000  C
  C58      1.0000 0.44642  0.44642  0.05358  Biso   1.000  C
  C59      1.0000 0.11157  0.11157  0.38843  Biso   1.000  C
  C60      1.0000 0.05358  0.05358  0.44642  Biso   1.000  C
  C61      1.0000 0.38843  0.11157  0.11157  Biso   1.000  C
  C62      1.0000 0.44642  0.05358  0.05358  Biso   1.000  C
  C63      1.0000 0.11157  0.38843  0.38843  Biso   1.000  C
  C64      1.0000 0.05358  0.44642  0.44642  Biso   1.000  C
  C65      1.0000 0.38843  0.11157  0.38843  Biso   1.000  C
  C66      1.0000 0.44642  0.05358  0.44642  Biso   1.000  C
  C67      1.0000 0.11157  0.38843  0.11157  Biso   1.000  C
  C68      1.0000 0.05358  0.44642  0.05358  Biso   1.000  C
  C69      1.0000 0.61157  0.61157  0.88843  Biso   1.000  C
  C70      1.0000 0.55358  0.55358  0.94642  Biso   1.000  C
  C71      1.0000 0.88843  0.88843  0.61157  Biso   1.000  C
  C72      1.0000 0.94642  0.94642  0.55358  Biso   1.000  C
  C73      1.0000 0.88843  0.61157  0.88843  Biso   1.000  C
  C74      1.0000 0.94642  0.55358  0.94642  Biso   1.000  C
  C75      1.0000 0.61157  0.88843  0.61157  Biso   1.000  C
  C76      1.0000 0.55358  0.94642  0.55358  Biso   1.000  C
  C77      1.0000 0.88843  0.61157  0.61157  Biso   1.000  C
  C78      1.0000 0.94642  0.55358  0.55358  Biso   1.000  C
  C79      1.0000 0.61157  0.88843  0.88843  Biso   1.000  C
  C80      1.0000 0.55358  0.94642  0.94642  Biso   1.000  C
  C81      1.0000 0.25000  0.25000  0.25000  Biso   1.000  C
  C82      1.0000 0.75000  0.75000  0.75000  Biso   1.000  C
  C83      1.0000 0.36609  0.36609  0.07295  Biso   1.000  C
  C84      1.0000 0.36609  0.36609  0.19487  Biso   1.000  C
  C85      1.0000 0.07295  0.19487  0.36609  Biso   1.000  C
  C86      1.0000 0.19487  0.07295  0.36609  Biso   1.000  C
  C87      1.0000 0.36609  0.07295  0.19487  Biso   1.000  C
  C88      1.0000 0.36609  0.19487  0.07295  Biso   1.000  C
  C89      1.0000 0.07295  0.36609  0.36609  Biso   1.000  C
  C90      1.0000 0.19487  0.36609  0.36609  Biso   1.000  C
  C91      1.0000 0.36609  0.19487  0.36609  Biso   1.000  C
  C92      1.0000 0.36609  0.07295  0.36609  Biso   1.000  C
  C93      1.0000 0.07295  0.36609  0.19487  Biso   1.000  C
  C94      1.0000 0.19487  0.36609  0.07295  Biso   1.000  C
  C95      1.0000 0.63391  0.63391  0.92705  Biso   1.000  C
  C96      1.0000 0.63391  0.63391  0.80513  Biso   1.000  C
  C97      1.0000 0.80513  0.92705  0.63391  Biso   1.000  C
  C98      1.0000 0.92705  0.80513  0.63391  Biso   1.000  C
  C99      1.0000 0.92705  0.63391  0.80513  Biso   1.000  C
  C100     1.0000 0.80513  0.63391  0.92705  Biso   1.000  C
  C101     1.0000 0.63391  0.92705  0.63391  Biso   1.000  C
  C102     1.0000 0.63391  0.80513  0.63391  Biso   1.000  C
  C103     1.0000 0.80513  0.63391  0.63391  Biso   1.000  C
  C104     1.0000 0.92705  0.63391  0.63391  Biso   1.000  C
  C105     1.0000 0.63391  0.92705  0.80513  Biso   1.000  C
  C106     1.0000 0.63391  0.80513  0.92705  Biso   1.000  C
  O1       1.0000 0.09947  0.06626  0.93688  Biso   1.000  O
  O2       1.0000 0.92546  0.06626  0.11088  Biso   1.000  O
  O3       1.0000 0.92546  0.24027  0.93688  Biso   1.000  O
  O4       1.0000 0.92546  0.06626  0.93688  Biso   1.000  O
  O5       1.0000 0.33860  0.65322  0.52384  Biso   1.000  O
  O6       1.0000 0.51261  0.65322  0.34983  Biso   1.000  O
  O7       1.0000 0.51261  0.65322  0.52384  Biso   1.000  O
  O8       1.0000 0.51261  0.47922  0.52384  Biso   1.000  O
  O9       1.0000 0.28469  0.90505  0.07409  Biso   1.000  O
  O10      1.0000 0.06277  0.90505  0.29602  Biso   1.000  O
  O11      1.0000 0.76434  0.42540  0.77566  Biso   1.000  O
  O12      1.0000 0.76434  0.20348  0.77566  Biso   1.000  O
  O13      1.0000 0.76434  0.20348  0.29602  Biso   1.000  O
  O14      1.0000 0.76434  0.42540  0.07409  Biso   1.000  O
  O15      1.0000 0.28469  0.90505  0.77566  Biso   1.000  O
  O16      1.0000 0.06277  0.90505  0.77566  Biso   1.000  O
  O17      1.0000 0.06277  0.42540  0.77566  Biso   1.000  O
  O18      1.0000 0.28469  0.20348  0.77566  Biso   1.000  O
  O19      1.0000 0.76434  0.90505  0.29602  Biso   1.000  O
  O20      1.0000 0.76434  0.90505  0.07409  Biso   1.000  O
  O21      1.0000 0.15338  0.81444  0.38663  Biso   1.000  O
  O22      1.0000 0.37530  0.81444  0.16470  Biso   1.000  O
  O23      1.0000 0.67373  0.51601  0.68505  Biso   1.000  O
  O24      1.0000 0.67373  0.29408  0.68505  Biso   1.000  O
  O25      1.0000 0.67373  0.81444  0.16470  Biso   1.000  O
  O26      1.0000 0.67373  0.81444  0.38663  Biso   1.000  O
  O27      1.0000 0.15338  0.51601  0.68505  Biso   1.000  O
  O28      1.0000 0.37530  0.29408  0.68505  Biso   1.000  O
  O29      1.0000 0.37530  0.81444  0.68505  Biso   1.000  O
  O30      1.0000 0.15338  0.81444  0.68505  Biso   1.000  O
  O31      1.0000 0.67373  0.51601  0.16470  Biso   1.000  O
  O32      1.0000 0.67373  0.29408  0.38663  Biso   1.000  O
  O33      1.0000 0.25752  0.88620  0.13897  Biso   1.000  O
  O34      1.0000 0.12764  0.88620  0.26884  Biso   1.000  O
  O35      1.0000 0.74549  0.39823  0.75681  Biso   1.000  O
  O36      1.0000 0.74549  0.26835  0.75681  Biso   1.000  O
  O37      1.0000 0.74549  0.26835  0.26884  Biso   1.000  O
  O38      1.0000 0.74549  0.39823  0.13896  Biso   1.000  O
  O39      1.0000 0.25752  0.88620  0.75681  Biso   1.000  O
  O40      1.0000 0.12764  0.88620  0.75681  Biso   1.000  O
  O41      1.0000 0.12764  0.39823  0.75681  Biso   1.000  O
  O42      1.0000 0.25752  0.26835  0.75681  Biso   1.000  O
  O43      1.0000 0.74549  0.88620  0.26884  Biso   1.000  O
  O44      1.0000 0.74549  0.88620  0.13896  Biso   1.000  O
  O45      1.0000 0.18055  0.83329  0.32175  Biso   1.000  O
  O46      1.0000 0.31043  0.83329  0.19187  Biso   1.000  O
  O47      1.0000 0.69258  0.45114  0.70390  Biso   1.000  O
  O48      1.0000 0.69258  0.32126  0.70390  Biso   1.000  O
  O49      1.0000 0.69258  0.83329  0.19187  Biso   1.000  O
  O50      1.0000 0.69258  0.83329  0.32175  Biso   1.000  O
  O51      1.0000 0.18055  0.45114  0.70390  Biso   1.000  O
  O52      1.0000 0.31043  0.32126  0.70390  Biso   1.000  O
  O53      1.0000 0.31043  0.83329  0.70390  Biso   1.000  O
  O54      1.0000 0.18055  0.83329  0.70390  Biso   1.000  O
  O55      1.0000 0.69258  0.45114  0.19187  Biso   1.000  O
  O56      1.0000 0.69258  0.32126  0.32175  Biso   1.000  O
  O57      1.0000 0.10728  0.97145  0.11869  Biso   1.000  O
  O58      1.0000 0.16521  0.91352  0.17663  Biso   1.000  O
  O59      1.0000 0.83065  0.24808  0.84207  Biso   1.000  O
  O60      1.0000 0.77272  0.30602  0.78413  Biso   1.000  O
  O61      1.0000 0.83065  0.24808  0.11869  Biso   1.000  O
  O62      1.0000 0.77272  0.30602  0.17663  Biso   1.000  O
  O63      1.0000 0.10728  0.97145  0.84207  Biso   1.000  O
  O64      1.0000 0.16521  0.91352  0.78413  Biso   1.000  O
  O65      1.0000 0.10728  0.24808  0.84207  Biso   1.000  O
  O66      1.0000 0.16521  0.30602  0.78413  Biso   1.000  O
  O67      1.0000 0.83065  0.97145  0.11869  Biso   1.000  O
  O68      1.0000 0.77272  0.91352  0.17663  Biso   1.000  O
  O69      1.0000 0.33079  0.74803  0.34202  Biso   1.000  O
  O70      1.0000 0.27286  0.80597  0.28409  Biso   1.000  O
  O71      1.0000 0.60742  0.47141  0.61865  Biso   1.000  O
  O72      1.0000 0.66535  0.41347  0.67658  Biso   1.000  O
  O73      1.0000 0.60742  0.74803  0.34202  Biso   1.000  O
  O74      1.0000 0.66535  0.80597  0.28409  Biso   1.000  O
  O75      1.0000 0.33079  0.47141  0.61865  Biso   1.000  O
  O76      1.0000 0.27286  0.41347  0.67658  Biso   1.000  O
  O77      1.0000 0.33079  0.74803  0.61865  Biso   1.000  O
  O78      1.0000 0.27286  0.80597  0.67658  Biso   1.000  O
  O79      1.0000 0.60742  0.47141  0.34202  Biso   1.000  O
  O80      1.0000 0.66535  0.41347  0.28409  Biso   1.000  O
  O81      1.0000 0.14651  0.99363  0.03512  Biso   1.000  O
  O82      1.0000 0.02370  0.99363  0.15793  Biso   1.000  O
  O83      1.0000 0.85282  0.28731  0.86424  Biso   1.000  O
  O84      1.0000 0.85282  0.16450  0.86424  Biso   1.000  O
  O85      1.0000 0.85282  0.16450  0.15793  Biso   1.000  O
  O86      1.0000 0.85282  0.28731  0.03512  Biso   1.000  O
  O87      1.0000 0.14651  0.99363  0.86424  Biso   1.000  O
  O88      1.0000 0.02370  0.99363  0.86424  Biso   1.000  O
  O89      1.0000 0.02370  0.28731  0.86424  Biso   1.000  O
  O90      1.0000 0.14651  0.16450  0.86424  Biso   1.000  O
  O91      1.0000 0.85282  0.99363  0.15793  Biso   1.000  O
  O92      1.0000 0.85282  0.99363  0.03512  Biso   1.000  O
  O93      1.0000 0.29156  0.72586  0.42560  Biso   1.000  O
  O94      1.0000 0.41437  0.72586  0.30279  Biso   1.000  O
  O95      1.0000 0.58525  0.55499  0.59647  Biso   1.000  O
  O96      1.0000 0.58525  0.43217  0.59647  Biso   1.000  O
  O97      1.0000 0.58525  0.72586  0.30279  Biso   1.000  O
  O98      1.0000 0.58525  0.72586  0.42560  Biso   1.000  O
  O99      1.0000 0.29156  0.55499  0.59647  Biso   1.000  O
  O100     1.0000 0.41437  0.43217  0.59647  Biso   1.000  O
  O101     1.0000 0.41437  0.72586  0.59647  Biso   1.000  O
  O102     1.0000 0.29156  0.72586  0.59647  Biso   1.000  O
  O103     1.0000 0.58525  0.55499  0.30279  Biso   1.000  O
  O104     1.0000 0.58525  0.43217  0.42560  Biso   1.000  O
  O105     1.0000 0.96897  0.10977  0.98038  Biso   1.000  O
