data_image0
_cell_length_a       18.2422
_cell_length_b       18.2422
_cell_length_c       18.2422
_cell_angle_alpha    60
_cell_angle_beta     60
_cell_angle_gamma    60

_symmetry_space_group_name_H-M    "P 1"
_symmetry_int_tables_number       1

loop_
  _symmetry_equiv_pos_as_xyz
  'x, y, z'

loop_
  _atom_site_label
  _atom_site_occupancy
  _atom_site_fract_x
  _atom_site_fract_y
  _atom_site_fract_z
  _atom_site_thermal_displace_type
  _atom_site_B_iso_or_equiv
  _atom_site_type_symbol
  C1       1.0000 0.29356  0.29355  0.11934  Biso   1.000  C
  C2       1.0000 0.29356  0.29355  0.29355  Biso   1.000  C
  C3       1.0000 0.11935  0.29355  0.29355  Biso   1.000  C
  C4       1.0000 0.29356  0.11934  0.29355  Biso   1.000  C
  C5       1.0000 0.70644  0.70645  0.88066  Biso   1.000  C
  C6       1.0000 0.70644  0.70645  0.70645  Biso   1.000  C
  C7       1.0000 0.70644  0.88066  0.70645  Biso   1.000  C
  C8       1.0000 0.88065  0.70645  0.70645  Biso   1.000  C
  C9       1.0000 0.45610  0.45610  0.93590  Biso   1.000  C
  C10      1.0000 0.45610  0.45610  0.15190  Biso   1.000  C
  C11      1.0000 0.93590  0.15190  0.45610  Biso   1.000  C
  C12      1.0000 0.15190  0.93590  0.45610  Biso   1.000  C
  C13      1.0000 0.45610  0.93590  0.15190  Biso   1.000  C
  C14      1.0000 0.45610  0.15190  0.93590  Biso   1.000  C
  C15      1.0000 0.93590  0.45610  0.45610  Biso   1.000  C
  C16      1.0000 0.15190  0.45610  0.45610  Biso   1.000  C
  C17      1.0000 0.45610  0.15190  0.45610  Biso   1.000  C
  C18      1.0000 0.45610  0.93590  0.45610  Biso   1.000  C
  C19      1.0000 0.93590  0.45610  0.15190  Biso   1.000  C
  C20      1.0000 0.15190  0.45610  0.93590  Biso   1.000  C
  C21      1.0000 0.54390  0.54390  0.06410  Biso   1.000  C
  C22      1.0000 0.54390  0.54390  0.84810  Biso   1.000  C
  C23      1.0000 0.84810  0.06410  0.54390  Biso   1.000  C
  C24      1.0000 0.06410  0.84810  0.54390  Biso   1.000  C
  C25      1.0000 0.06410  0.54390  0.84810  Biso   1.000  C
  C26      1.0000 0.84810  0.54390  0.06410  Biso   1.000  C
  C27      1.0000 0.54390  0.06410  0.54390  Biso   1.000  C
  C28      1.0000 0.54390  0.84810  0.54390  Biso   1.000  C
  C29      1.0000 0.84810  0.54390  0.54390  Biso   1.000  C
  C30      1.0000 0.06410  0.54390  0.54390  Biso   1.000  C
  C31      1.0000 0.54390  0.06410  0.84810  Biso   1.000  C
  C32      1.0000 0.54390  0.84810  0.06410  Biso   1.000  C
  C33      1.0000 0.47369  0.47369  0.96285  Biso   1.000  C
  C34      1.0000 0.47369  0.47369  0.08977  Biso   1.000  C
  C35      1.0000 0.96285  0.08977  0.47369  Biso   1.000  C
  C36      1.0000 0.08977  0.96285  0.47369  Biso   1.000  C
  C37      1.0000 0.47369  0.96285  0.08977  Biso   1.000  C
  C38      1.0000 0.47369  0.08977  0.96285  Biso   1.000  C
  C39      1.0000 0.96285  0.47369  0.47369  Biso   1.000  C
  C40      1.0000 0.08977  0.47369  0.47369  Biso   1.000  C
  C41      1.0000 0.47369  0.08977  0.47369  Biso   1.000  C
  C42      1.0000 0.47369  0.96285  0.47369  Biso   1.000  C
  C43      1.0000 0.96285  0.47369  0.08977  Biso   1.000  C
  C44      1.0000 0.08977  0.47369  0.96285  Biso   1.000  C
  C45      1.0000 0.52631  0.52631  0.03715  Biso   1.000  C
  C46      1.0000 0.52631  0.52631  0.91023  Biso   1.000  C
  C47      1.0000 0.91023  0.03715  0.52631  Biso   1.000  C
  C48      1.0000 0.03715  0.91023  0.52631  Biso   1.000  C
  C49      1.0000 0.03715  0.52631  0.91023  Biso   1.000  C
  C50      1.0000 0.91023  0.52631  0.03715  Biso   1.000  C
  C51      1.0000 0.52631  0.03715  0.52631  Biso   1.000  C
  C52      1.0000 0.52631  0.91023  0.52631  Biso   1.000  C
  C53      1.0000 0.91023  0.52631  0.52631  Biso   1.000  C
  C54      1.0000 0.03715  0.52631  0.52631  Biso   1.000  C
  C55      1.0000 0.52631  0.03715  0.91023  Biso   1.000  C
  C56      1.0000 0.52631  0.91023  0.03715  Biso   1.000  C
  C57      1.0000 0.38870  0.38870  0.11130  Biso   1.000  C
  C58      1.0000 0.44610  0.44610  0.05390  Biso   1.000  C
  C59      1.0000 0.11130  0.11130  0.38870  Biso   1.000  C
  C60      1.0000 0.05390  0.05390  0.44610  Biso   1.000  C
  C61      1.0000 0.38870  0.11130  0.11130  Biso   1.000  C
  C62      1.0000 0.44610  0.05390  0.05390  Biso   1.000  C
  C63      1.0000 0.11130  0.38870  0.38870  Biso   1.000  C
  C64      1.0000 0.05390  0.44610  0.44610  Biso   1.000  C
  C65      1.0000 0.38870  0.11130  0.38870  Biso   1.000  C
  C66      1.0000 0.44610  0.05390  0.44610  Biso   1.000  C
  C67      1.0000 0.11130  0.38870  0.11130  Biso   1.000  C
  C68      1.0000 0.05390  0.44610  0.05390  Biso   1.000  C
  C69      1.0000 0.61130  0.61130  0.88870  Biso   1.000  C
  C70      1.0000 0.55390  0.55390  0.94610  Biso   1.000  C
  C71      1.0000 0.88870  0.88870  0.61130  Biso   1.000  C
  C72      1.0000 0.94610  0.94610  0.55390  Biso   1.000  C
  C73      1.0000 0.88870  0.61130  0.88870  Biso   1.000  C
  C74      1.0000 0.94610  0.55390  0.94610  Biso   1.000  C
  C75      1.0000 0.61130  0.88870  0.61130  Biso   1.000  C
  C76      1.0000 0.55390  0.94610  0.55390  Biso   1.000  C
  C77      1.0000 0.88870  0.61130  0.61130  Biso   1.000  C
  C78      1.0000 0.94610  0.55390  0.55390  Biso   1.000  C
  C79      1.0000 0.61130  0.88870  0.88870  Biso   1.000  C
  C80      1.0000 0.55390  0.94610  0.94610  Biso   1.000  C
  C81      1.0000 0.25000  0.25000  0.25000  Biso   1.000  C
  C82      1.0000 0.75000  0.75000  0.75000  Biso   1.000  C
  C83      1.0000 0.36609  0.36609  0.07323  Biso   1.000  C
  C84      1.0000 0.36609  0.36609  0.19459  Biso   1.000  C
  C85      1.0000 0.07323  0.19459  0.36609  Biso   1.000  C
  C86      1.0000 0.19459  0.07323  0.36609  Biso   1.000  C
  C87      1.0000 0.36609  0.07323  0.19459  Biso   1.000  C
  C88      1.0000 0.36609  0.19459  0.07323  Biso   1.000  C
  C89      1.0000 0.07323  0.36609  0.36609  Biso   1.000  C
  C90      1.0000 0.19459  0.36609  0.36609  Biso   1.000  C
  C91      1.0000 0.36609  0.19459  0.36609  Biso   1.000  C
  C92      1.0000 0.36609  0.07323  0.36609  Biso   1.000  C
  C93      1.0000 0.07323  0.36609  0.19459  Biso   1.000  C
  C94      1.0000 0.19459  0.36609  0.07323  Biso   1.000  C
  C95      1.0000 0.63391  0.63391  0.92677  Biso   1.000  C
  C96      1.0000 0.63391  0.63391  0.80541  Biso   1.000  C
  C97      1.0000 0.80541  0.92677  0.63391  Biso   1.000  C
  C98      1.0000 0.92677  0.80541  0.63391  Biso   1.000  C
  C99      1.0000 0.92677  0.63391  0.80541  Biso   1.000  C
  C100     1.0000 0.80541  0.63391  0.92677  Biso   1.000  C
  C101     1.0000 0.63391  0.92677  0.63391  Biso   1.000  C
  C102     1.0000 0.63391  0.80541  0.63391  Biso   1.000  C
  C103     1.0000 0.80541  0.63391  0.63391  Biso   1.000  C
  C104     1.0000 0.92677  0.63391  0.63391  Biso   1.000  C
  C105     1.0000 0.63391  0.92677  0.80541  Biso   1.000  C
  C106     1.0000 0.63391  0.80541  0.92677  Biso   1.000  C
  O1       1.0000 0.00000  0.00000  0.00000  Biso   1.000  O
  O2       1.0000 0.57509  0.41707  0.59077  Biso   1.000  O
  O3       1.0000 0.57509  0.59091  0.59077  Biso   1.000  O
  O4       1.0000 0.00000  0.17384  0.00000  Biso   1.000  O
  O5       1.0000 0.99996  0.99992  0.17404  Biso   1.000  O
  O6       1.0000 0.17362  0.00018  0.99987  Biso   1.000  O
  O7       1.0000 0.57513  0.59099  0.41673  Biso   1.000  O
  O8       1.0000 0.40147  0.59073  0.59090  Biso   1.000  O
  O9       1.0000 0.82761  0.84311  0.36512  Biso   1.000  O
  O10      1.0000 0.82666  0.84465  0.13654  Biso   1.000  O
  O11      1.0000 0.82377  0.13659  0.84550  Biso   1.000  O
  O12      1.0000 0.74748  0.45290  0.22565  Biso   1.000  O
  O13      1.0000 0.74843  0.22493  0.45423  Biso   1.000  O
  O14      1.0000 0.75133  0.22292  0.74527  Biso   1.000  O
  O15      1.0000 0.74748  0.74780  0.22565  Biso   1.000  O
  O16      1.0000 0.74843  0.74626  0.45423  Biso   1.000  O
  O17      1.0000 0.75132  0.45432  0.74527  Biso   1.000  O
  O18      1.0000 0.82761  0.13801  0.36512  Biso   1.000  O
  O19      1.0000 0.82666  0.36599  0.13654  Biso   1.000  O
  O20      1.0000 0.82376  0.36799  0.84550  Biso   1.000  O
  O21      1.0000 0.91269  0.91173  0.17852  Biso   1.000  O
  O22      1.0000 0.84859  0.84713  0.23786  Biso   1.000  O
  O23      1.0000 0.81193  0.82168  0.33872  Biso   1.000  O
  O24      1.0000 0.81198  0.82312  0.19985  Biso   1.000  O
  O25      1.0000 0.17453  0.91234  0.91248  Biso   1.000  O
  O26      1.0000 0.81037  0.19980  0.82178  Biso   1.000  O
  O27      1.0000 0.66240  0.42001  0.41225  Biso   1.000  O
  O28      1.0000 0.72650  0.35065  0.35291  Biso   1.000  O
  O29      1.0000 0.76316  0.38940  0.25205  Biso   1.000  O
  O30      1.0000 0.76311  0.25202  0.39092  Biso   1.000  O
  O31      1.0000 0.40056  0.41642  0.67829  Biso   1.000  O
  O32      1.0000 0.76472  0.24902  0.76899  Biso   1.000  O
  O33      1.0000 0.66240  0.67918  0.41225  Biso   1.000  O
  O34      1.0000 0.72650  0.74378  0.35291  Biso   1.000  O
  O35      1.0000 0.76316  0.76924  0.25205  Biso   1.000  O
  O36      1.0000 0.76311  0.76779  0.39092  Biso   1.000  O
  O37      1.0000 0.40056  0.67857  0.67829  Biso   1.000  O
  O38      1.0000 0.76472  0.39111  0.76899  Biso   1.000  O
  O39      1.0000 0.91269  0.17091  0.17852  Biso   1.000  O
  O40      1.0000 0.84859  0.24026  0.23786  Biso   1.000  O
  O41      1.0000 0.81193  0.20151  0.33872  Biso   1.000  O
  O42      1.0000 0.81198  0.33890  0.19985  Biso   1.000  O
  O43      1.0000 0.17453  0.17449  0.91248  Biso   1.000  O
  O44      1.0000 0.81037  0.34189  0.82178  Biso   1.000  O
  O45      1.0000 0.17256  0.91143  0.17842  Biso   1.000  O
  O46      1.0000 0.90930  0.17559  0.91337  Biso   1.000  O
  O47      1.0000 0.84837  0.24048  0.84450  Biso   1.000  O
  O48      1.0000 0.40253  0.67948  0.41235  Biso   1.000  O
  O49      1.0000 0.66579  0.41533  0.67740  Biso   1.000  O
  O50      1.0000 0.72672  0.35043  0.74627  Biso   1.000  O
  O51      1.0000 0.93016  0.92800  0.22238  Biso   1.000  O
  O52      1.0000 0.92817  0.92721  0.09576  Biso   1.000  O
  O53      1.0000 0.22375  0.92782  0.92875  Biso   1.000  O
  O54      1.0000 0.09347  0.92762  0.92865  Biso   1.000  O
  O55      1.0000 0.92895  0.09402  0.92706  Biso   1.000  O
  O56      1.0000 0.64493  0.49760  0.36839  Biso   1.000  O
  O57      1.0000 0.64692  0.36820  0.49501  Biso   1.000  O
  O58      1.0000 0.35134  0.49739  0.66202  Biso   1.000  O
  O59      1.0000 0.48162  0.36681  0.66212  Biso   1.000  O
  O60      1.0000 0.64614  0.36710  0.66370  Biso   1.000  O
  O61      1.0000 0.64493  0.66291  0.36839  Biso   1.000  O
  O62      1.0000 0.64693  0.66370  0.49501  Biso   1.000  O
  O63      1.0000 0.35134  0.66310  0.66202  Biso   1.000  O
  O64      1.0000 0.48162  0.66329  0.66212  Biso   1.000  O
  O65      1.0000 0.64614  0.49689  0.66370  Biso   1.000  O
  O66      1.0000 0.93016  0.09331  0.22238  Biso   1.000  O
  O67      1.0000 0.92817  0.22271  0.09576  Biso   1.000  O
  O68      1.0000 0.22375  0.09352  0.92875  Biso   1.000  O
  O69      1.0000 0.09347  0.22411  0.92865  Biso   1.000  O
  O70      1.0000 0.92895  0.22381  0.92706  Biso   1.000  O
  O71      1.0000 0.04197  0.04480  0.04227  Biso   1.000  O
  O72      1.0000 0.09378  0.92810  0.22387  Biso   1.000  O
  O73      1.0000 0.22346  0.92820  0.09397  Biso   1.000  O
  O74      1.0000 0.53312  0.54611  0.54850  Biso   1.000  O
  O75      1.0000 0.48131  0.66281  0.36690  Biso   1.000  O
