data_image0
_cell_length_a       18.3083
_cell_length_b       18.3083
_cell_length_c       18.3083
_cell_angle_alpha    60
_cell_angle_beta     60
_cell_angle_gamma    60

_symmetry_space_group_name_H-M    "P 1"
_symmetry_int_tables_number       1

loop_
  _symmetry_equiv_pos_as_xyz
  'x, y, z'

loop_
  _atom_site_label
  _atom_site_occupancy
  _atom_site_fract_x
  _atom_site_fract_y
  _atom_site_fract_z
  _atom_site_thermal_displace_type
  _atom_site_B_iso_or_equiv
  _atom_site_type_symbol
  Zn1      1.0000 0.29342  0.29341  0.11976  Biso   1.000  Zn
  Zn2      1.0000 0.29342  0.29341  0.29341  Biso   1.000  Zn
  Zn3      1.0000 0.11977  0.29341  0.29341  Biso   1.000  Zn
  Zn4      1.0000 0.29342  0.11976  0.29341  Biso   1.000  Zn
  Zn5      1.0000 0.70658  0.70659  0.88024  Biso   1.000  Zn
  Zn6      1.0000 0.70658  0.70659  0.70659  Biso   1.000  Zn
  Zn7      1.0000 0.70658  0.88024  0.70659  Biso   1.000  Zn
  Zn8      1.0000 0.88023  0.70659  0.70659  Biso   1.000  Zn
  H1       1.0000 0.45480  0.45480  0.93480  Biso   1.000  H
  H2       1.0000 0.45480  0.45480  0.15560  Biso   1.000  H
  H3       1.0000 0.93480  0.15560  0.45480  Biso   1.000  H
  H4       1.0000 0.15560  0.93480  0.45480  Biso   1.000  H
  H5       1.0000 0.45480  0.93480  0.15560  Biso   1.000  H
  H6       1.0000 0.45480  0.15560  0.93480  Biso   1.000  H
  H7       1.0000 0.93480  0.45480  0.45480  Biso   1.000  H
  H8       1.0000 0.15560  0.45480  0.45480  Biso   1.000  H
  H9       1.0000 0.45480  0.15560  0.45480  Biso   1.000  H
  H10      1.0000 0.45480  0.93480  0.45480  Biso   1.000  H
  H11      1.0000 0.93480  0.45480  0.15560  Biso   1.000  H
  H12      1.0000 0.15560  0.45480  0.93480  Biso   1.000  H
  H13      1.0000 0.54520  0.54520  0.06520  Biso   1.000  H
  H14      1.0000 0.54520  0.54520  0.84440  Biso   1.000  H
  H15      1.0000 0.84440  0.06520  0.54520  Biso   1.000  H
  H16      1.0000 0.06520  0.84440  0.54520  Biso   1.000  H
  H17      1.0000 0.06520  0.54520  0.84440  Biso   1.000  H
  H18      1.0000 0.84440  0.54520  0.06520  Biso   1.000  H
  H19      1.0000 0.54520  0.06520  0.54520  Biso   1.000  H
  H20      1.0000 0.54520  0.84440  0.54520  Biso   1.000  H
  H21      1.0000 0.84440  0.54520  0.54520  Biso   1.000  H
  H22      1.0000 0.06520  0.54520  0.54520  Biso   1.000  H
  H23      1.0000 0.54520  0.06520  0.84440  Biso   1.000  H
  H24      1.0000 0.54520  0.84440  0.06520  Biso   1.000  H
  C1       1.0000 0.47317  0.47317  0.96131  Biso   1.000  C
  C2       1.0000 0.47317  0.47317  0.09235  Biso   1.000  C
  C3       1.0000 0.96131  0.09235  0.47317  Biso   1.000  C
  C4       1.0000 0.09235  0.96131  0.47317  Biso   1.000  C
  C5       1.0000 0.47317  0.96131  0.09235  Biso   1.000  C
  C6       1.0000 0.47317  0.09235  0.96131  Biso   1.000  C
  C7       1.0000 0.96131  0.47317  0.47317  Biso   1.000  C
  C8       1.0000 0.09235  0.47317  0.47317  Biso   1.000  C
  C9       1.0000 0.47317  0.09235  0.47317  Biso   1.000  C
  C10      1.0000 0.47317  0.96131  0.47317  Biso   1.000  C
  C11      1.0000 0.96131  0.47317  0.09235  Biso   1.000  C
  C12      1.0000 0.09235  0.47317  0.96131  Biso   1.000  C
  C13      1.0000 0.52683  0.52683  0.03869  Biso   1.000  C
  C14      1.0000 0.52683  0.52683  0.90765  Biso   1.000  C
  C15      1.0000 0.90765  0.03869  0.52683  Biso   1.000  C
  C16      1.0000 0.03869  0.90765  0.52683  Biso   1.000  C
  C17      1.0000 0.03869  0.52683  0.90765  Biso   1.000  C
  C18      1.0000 0.90765  0.52683  0.03869  Biso   1.000  C
  C19      1.0000 0.52683  0.03869  0.52683  Biso   1.000  C
  C20      1.0000 0.52683  0.90765  0.52683  Biso   1.000  C
  C21      1.0000 0.90765  0.52683  0.52683  Biso   1.000  C
  C22      1.0000 0.03869  0.52683  0.52683  Biso   1.000  C
  C23      1.0000 0.52683  0.03869  0.90765  Biso   1.000  C
  C24      1.0000 0.52683  0.90765  0.03869  Biso   1.000  C
  C25      1.0000 0.38843  0.38843  0.11157  Biso   1.000  C
  C26      1.0000 0.44641  0.44641  0.05359  Biso   1.000  C
  C27      1.0000 0.11157  0.11157  0.38843  Biso   1.000  C
  C28      1.0000 0.05359  0.05359  0.44641  Biso   1.000  C
  C29      1.0000 0.38843  0.11157  0.11157  Biso   1.000  C
  C30      1.0000 0.44641  0.05359  0.05359  Biso   1.000  C
  C31      1.0000 0.11157  0.38843  0.38843  Biso   1.000  C
  C32      1.0000 0.05359  0.44641  0.44641  Biso   1.000  C
  C33      1.0000 0.38843  0.11157  0.38843  Biso   1.000  C
  C34      1.0000 0.44641  0.05359  0.44641  Biso   1.000  C
  C35      1.0000 0.11157  0.38843  0.11157  Biso   1.000  C
  C36      1.0000 0.05359  0.44641  0.05359  Biso   1.000  C
  C37      1.0000 0.61157  0.61157  0.88843  Biso   1.000  C
  C38      1.0000 0.55359  0.55359  0.94641  Biso   1.000  C
  C39      1.0000 0.88843  0.88843  0.61157  Biso   1.000  C
  C40      1.0000 0.94641  0.94641  0.55359  Biso   1.000  C
  C41      1.0000 0.88843  0.61157  0.88843  Biso   1.000  C
  C42      1.0000 0.94641  0.55359  0.94641  Biso   1.000  C
  C43      1.0000 0.61157  0.88843  0.61157  Biso   1.000  C
  C44      1.0000 0.55359  0.94641  0.55359  Biso   1.000  C
  C45      1.0000 0.88843  0.61157  0.61157  Biso   1.000  C
  C46      1.0000 0.94641  0.55359  0.55359  Biso   1.000  C
  C47      1.0000 0.61157  0.88843  0.88843  Biso   1.000  C
  C48      1.0000 0.55359  0.94641  0.94641  Biso   1.000  C
  O1       1.0000 0.25000  0.25000  0.25000  Biso   1.000  O
  O2       1.0000 0.75000  0.75000  0.75000  Biso   1.000  O
  O3       1.0000 0.36629  0.36629  0.07237  Biso   1.000  O
  O4       1.0000 0.36629  0.36629  0.19505  Biso   1.000  O
  O5       1.0000 0.07237  0.19505  0.36629  Biso   1.000  O
  O6       1.0000 0.19505  0.07237  0.36629  Biso   1.000  O
  O7       1.0000 0.36629  0.07237  0.19505  Biso   1.000  O
  O8       1.0000 0.36629  0.19505  0.07237  Biso   1.000  O
  O9       1.0000 0.07237  0.36629  0.36629  Biso   1.000  O
  O10      1.0000 0.19505  0.36629  0.36629  Biso   1.000  O
  O11      1.0000 0.36629  0.19505  0.36629  Biso   1.000  O
  O12      1.0000 0.36629  0.07237  0.36629  Biso   1.000  O
  O13      1.0000 0.07237  0.36629  0.19505  Biso   1.000  O
  O14      1.0000 0.19505  0.36629  0.07237  Biso   1.000  O
  O15      1.0000 0.63371  0.63371  0.92763  Biso   1.000  O
  O16      1.0000 0.63371  0.63371  0.80495  Biso   1.000  O
  O17      1.0000 0.80495  0.92763  0.63371  Biso   1.000  O
  O18      1.0000 0.92763  0.80495  0.63371  Biso   1.000  O
  O19      1.0000 0.92763  0.63371  0.80495  Biso   1.000  O
  O20      1.0000 0.80495  0.63371  0.92763  Biso   1.000  O
  O21      1.0000 0.63371  0.92763  0.63371  Biso   1.000  O
  O22      1.0000 0.63371  0.80495  0.63371  Biso   1.000  O
  O23      1.0000 0.80495  0.63371  0.63371  Biso   1.000  O
  O24      1.0000 0.92763  0.63371  0.63371  Biso   1.000  O
  O25      1.0000 0.63371  0.92763  0.80495  Biso   1.000  O
  O26      1.0000 0.63371  0.80495  0.92763  Biso   1.000  O
  Zn9      1.0000 0.09943  0.06624  0.93654  Biso   1.000  Zn
  Zn10     1.0000 0.92549  0.06624  0.11048  Biso   1.000  Zn
  Zn11     1.0000 0.92549  0.24018  0.93654  Biso   1.000  Zn
  Zn12     1.0000 0.92549  0.06624  0.93654  Biso   1.000  Zn
  Zn13     1.0000 0.33812  0.65335  0.52365  Biso   1.000  Zn
  Zn14     1.0000 0.51206  0.65335  0.34971  Biso   1.000  Zn
  Zn15     1.0000 0.51206  0.65335  0.52365  Biso   1.000  Zn
  Zn16     1.0000 0.51206  0.47941  0.52365  Biso   1.000  Zn
  H25      1.0000 0.28459  0.90508  0.07370  Biso   1.000  H
  H26      1.0000 0.06238  0.90508  0.29591  Biso   1.000  H
  H27      1.0000 0.76406  0.42561  0.77538  Biso   1.000  H
  H28      1.0000 0.76406  0.20340  0.77538  Biso   1.000  H
  H29      1.0000 0.76406  0.20340  0.29591  Biso   1.000  H
  H30      1.0000 0.76406  0.42561  0.07370  Biso   1.000  H
  H31      1.0000 0.28459  0.90508  0.77538  Biso   1.000  H
  H32      1.0000 0.06238  0.90508  0.77538  Biso   1.000  H
  H33      1.0000 0.06238  0.42561  0.77538  Biso   1.000  H
  H34      1.0000 0.28459  0.20340  0.77538  Biso   1.000  H
  H35      1.0000 0.76406  0.90508  0.29591  Biso   1.000  H
  H36      1.0000 0.76406  0.90508  0.07370  Biso   1.000  H
  H37      1.0000 0.15296  0.81451  0.38649  Biso   1.000  H
  H38      1.0000 0.37517  0.81451  0.16428  Biso   1.000  H
  H39      1.0000 0.67349  0.51619  0.68481  Biso   1.000  H
  H40      1.0000 0.67349  0.29398  0.68481  Biso   1.000  H
  H41      1.0000 0.67349  0.81451  0.16428  Biso   1.000  H
  H42      1.0000 0.67349  0.81451  0.38649  Biso   1.000  H
  H43      1.0000 0.15296  0.51619  0.68481  Biso   1.000  H
  H44      1.0000 0.37517  0.29398  0.68481  Biso   1.000  H
  H45      1.0000 0.37517  0.81451  0.68481  Biso   1.000  H
  H46      1.0000 0.15296  0.81451  0.68481  Biso   1.000  H
  H47      1.0000 0.67349  0.51619  0.16428  Biso   1.000  H
  H48      1.0000 0.67349  0.29398  0.38649  Biso   1.000  H
  C49      1.0000 0.25743  0.88624  0.13855  Biso   1.000  C
  C50      1.0000 0.12724  0.88624  0.26875  Biso   1.000  C
  C51      1.0000 0.74522  0.39845  0.75654  Biso   1.000  C
  C52      1.0000 0.74522  0.26826  0.75654  Biso   1.000  C
  C53      1.0000 0.74522  0.26826  0.26875  Biso   1.000  C
  C54      1.0000 0.74522  0.39845  0.13855  Biso   1.000  C
  C55      1.0000 0.25743  0.88624  0.75654  Biso   1.000  C
  C56      1.0000 0.12724  0.88624  0.75654  Biso   1.000  C
  C57      1.0000 0.12724  0.39845  0.75654  Biso   1.000  C
  C58      1.0000 0.25743  0.26826  0.75654  Biso   1.000  C
  C59      1.0000 0.74522  0.88624  0.26875  Biso   1.000  C
  C60      1.0000 0.74522  0.88624  0.13855  Biso   1.000  C
  C61      1.0000 0.18012  0.83335  0.32163  Biso   1.000  C
  C62      1.0000 0.31032  0.83335  0.19144  Biso   1.000  C
  C63      1.0000 0.69233  0.45133  0.70365  Biso   1.000  C
  C64      1.0000 0.69233  0.32114  0.70365  Biso   1.000  C
  C65      1.0000 0.69233  0.83335  0.19144  Biso   1.000  C
  C66      1.0000 0.69233  0.83335  0.32163  Biso   1.000  C
  C67      1.0000 0.18012  0.45133  0.70365  Biso   1.000  C
  C68      1.0000 0.31032  0.32114  0.70365  Biso   1.000  C
  C69      1.0000 0.31031  0.83335  0.70365  Biso   1.000  C
  C70      1.0000 0.18012  0.83335  0.70365  Biso   1.000  C
  C71      1.0000 0.69233  0.45133  0.19144  Biso   1.000  C
  C72      1.0000 0.69233  0.32114  0.32163  Biso   1.000  C
  C73      1.0000 0.10724  0.97146  0.11829  Biso   1.000  C
  C74      1.0000 0.16515  0.91355  0.17620  Biso   1.000  C
  C75      1.0000 0.83071  0.24799  0.84176  Biso   1.000  C
  C76      1.0000 0.77280  0.30591  0.78385  Biso   1.000  C
  C77      1.0000 0.83071  0.24799  0.11829  Biso   1.000  C
  C78      1.0000 0.77280  0.30591  0.17620  Biso   1.000  C
  C79      1.0000 0.10724  0.97146  0.84176  Biso   1.000  C
  C80      1.0000 0.16515  0.91355  0.78385  Biso   1.000  C
  C81      1.0000 0.10724  0.24799  0.84176  Biso   1.000  C
  C82      1.0000 0.16515  0.30591  0.78385  Biso   1.000  C
  C83      1.0000 0.83071  0.97146  0.11829  Biso   1.000  C
  C84      1.0000 0.77280  0.91355  0.17620  Biso   1.000  C
  C85      1.0000 0.33031  0.74812  0.34190  Biso   1.000  C
  C86      1.0000 0.27240  0.80604  0.28398  Biso   1.000  C
  C87      1.0000 0.60684  0.47160  0.61842  Biso   1.000  C
  C88      1.0000 0.66475  0.41368  0.67634  Biso   1.000  C
  C89      1.0000 0.60684  0.74812  0.34190  Biso   1.000  C
  C90      1.0000 0.66475  0.80604  0.28398  Biso   1.000  C
  C91      1.0000 0.33031  0.47160  0.61842  Biso   1.000  C
  C92      1.0000 0.27240  0.41368  0.67634  Biso   1.000  C
  C93      1.0000 0.33031  0.74812  0.61842  Biso   1.000  C
  C94      1.0000 0.27240  0.80604  0.67634  Biso   1.000  C
  C95      1.0000 0.60684  0.47160  0.34190  Biso   1.000  C
  C96      1.0000 0.66475  0.41368  0.28398  Biso   1.000  C
  O27      1.0000 0.14646  0.99363  0.03474  Biso   1.000  O
  O28      1.0000 0.02369  0.99363  0.15751  Biso   1.000  O
  O29      1.0000 0.85288  0.28721  0.86393  Biso   1.000  O
  O30      1.0000 0.85288  0.16444  0.86393  Biso   1.000  O
  O31      1.0000 0.85288  0.16444  0.15751  Biso   1.000  O
  O32      1.0000 0.85288  0.28721  0.03474  Biso   1.000  O
  O33      1.0000 0.14646  0.99363  0.86393  Biso   1.000  O
  O34      1.0000 0.02369  0.99363  0.86393  Biso   1.000  O
  O35      1.0000 0.02369  0.28721  0.86393  Biso   1.000  O
  O36      1.0000 0.14646  0.16444  0.86393  Biso   1.000  O
  O37      1.0000 0.85288  0.99363  0.15751  Biso   1.000  O
  O38      1.0000 0.85288  0.99363  0.03474  Biso   1.000  O
  O39      1.0000 0.29109  0.72596  0.42545  Biso   1.000  O
  O40      1.0000 0.41386  0.72596  0.30268  Biso   1.000  O
  O41      1.0000 0.58467  0.55515  0.59626  Biso   1.000  O
  O42      1.0000 0.58467  0.43238  0.59626  Biso   1.000  O
  O43      1.0000 0.58467  0.72596  0.30268  Biso   1.000  O
  O44      1.0000 0.58467  0.72596  0.42545  Biso   1.000  O
  O45      1.0000 0.29109  0.55515  0.59626  Biso   1.000  O
  O46      1.0000 0.41386  0.43238  0.59626  Biso   1.000  O
  O47      1.0000 0.41386  0.72596  0.59626  Biso   1.000  O
  O48      1.0000 0.29109  0.72596  0.59626  Biso   1.000  O
  O49      1.0000 0.58467  0.55515  0.30268  Biso   1.000  O
  O50      1.0000 0.58467  0.43238  0.42545  Biso   1.000  O
  O51      1.0000 0.96898  0.10973  0.98003  Biso   1.000  O
