data_image0
_cell_length_a       18.2704
_cell_length_b       18.2704
_cell_length_c       18.2704
_cell_angle_alpha    60
_cell_angle_beta     60
_cell_angle_gamma    60

_symmetry_space_group_name_H-M    "P 1"
_symmetry_int_tables_number       1

loop_
  _symmetry_equiv_pos_as_xyz
  'x, y, z'

loop_
  _atom_site_label
  _atom_site_occupancy
  _atom_site_fract_x
  _atom_site_fract_y
  _atom_site_fract_z
  _atom_site_thermal_displace_type
  _atom_site_B_iso_or_equiv
  _atom_site_type_symbol
  Zn1      1.0000 0.29350  0.29349  0.11952  Biso   1.000  Zn
  Zn2      1.0000 0.29350  0.29349  0.29349  Biso   1.000  Zn
  Zn3      1.0000 0.11953  0.29349  0.29349  Biso   1.000  Zn
  Zn4      1.0000 0.29350  0.11952  0.29349  Biso   1.000  Zn
  Zn5      1.0000 0.70650  0.70651  0.88048  Biso   1.000  Zn
  Zn6      1.0000 0.70650  0.70651  0.70651  Biso   1.000  Zn
  Zn7      1.0000 0.70650  0.88048  0.70651  Biso   1.000  Zn
  Zn8      1.0000 0.88047  0.70651  0.70651  Biso   1.000  Zn
  H1       1.0000 0.45540  0.45540  0.93560  Biso   1.000  H
  H2       1.0000 0.45540  0.45540  0.15360  Biso   1.000  H
  H3       1.0000 0.93560  0.15360  0.45540  Biso   1.000  H
  H4       1.0000 0.15360  0.93560  0.45540  Biso   1.000  H
  H5       1.0000 0.45540  0.93560  0.15360  Biso   1.000  H
  H6       1.0000 0.45540  0.15360  0.93560  Biso   1.000  H
  H7       1.0000 0.93560  0.45540  0.45540  Biso   1.000  H
  H8       1.0000 0.15360  0.45540  0.45540  Biso   1.000  H
  H9       1.0000 0.45540  0.15360  0.45540  Biso   1.000  H
  H10      1.0000 0.45540  0.93560  0.45540  Biso   1.000  H
  H11      1.0000 0.93560  0.45540  0.15360  Biso   1.000  H
  H12      1.0000 0.15360  0.45540  0.93560  Biso   1.000  H
  H13      1.0000 0.54460  0.54460  0.06440  Biso   1.000  H
  H14      1.0000 0.54460  0.54460  0.84640  Biso   1.000  H
  H15      1.0000 0.84640  0.06440  0.54460  Biso   1.000  H
  H16      1.0000 0.06440  0.84640  0.54460  Biso   1.000  H
  H17      1.0000 0.06440  0.54460  0.84640  Biso   1.000  H
  H18      1.0000 0.84640  0.54460  0.06440  Biso   1.000  H
  H19      1.0000 0.54460  0.06440  0.54460  Biso   1.000  H
  H20      1.0000 0.54460  0.84640  0.54460  Biso   1.000  H
  H21      1.0000 0.84640  0.54460  0.54460  Biso   1.000  H
  H22      1.0000 0.06440  0.54460  0.54460  Biso   1.000  H
  H23      1.0000 0.54460  0.06440  0.84640  Biso   1.000  H
  H24      1.0000 0.54460  0.84640  0.06440  Biso   1.000  H
  C1       1.0000 0.47338  0.47338  0.96238  Biso   1.000  C
  C2       1.0000 0.47338  0.47338  0.09086  Biso   1.000  C
  C3       1.0000 0.96238  0.09086  0.47338  Biso   1.000  C
  C4       1.0000 0.09086  0.96238  0.47338  Biso   1.000  C
  C5       1.0000 0.47338  0.96238  0.09086  Biso   1.000  C
  C6       1.0000 0.47338  0.09086  0.96238  Biso   1.000  C
  C7       1.0000 0.96238  0.47338  0.47338  Biso   1.000  C
  C8       1.0000 0.09086  0.47338  0.47338  Biso   1.000  C
  C9       1.0000 0.47338  0.09086  0.47338  Biso   1.000  C
  C10      1.0000 0.47338  0.96238  0.47338  Biso   1.000  C
  C11      1.0000 0.96238  0.47338  0.09086  Biso   1.000  C
  C12      1.0000 0.09086  0.47338  0.96238  Biso   1.000  C
  C13      1.0000 0.52662  0.52662  0.03762  Biso   1.000  C
  C14      1.0000 0.52662  0.52662  0.90914  Biso   1.000  C
  C15      1.0000 0.90914  0.03762  0.52662  Biso   1.000  C
  C16      1.0000 0.03762  0.90914  0.52662  Biso   1.000  C
  C17      1.0000 0.03762  0.52662  0.90914  Biso   1.000  C
  C18      1.0000 0.90914  0.52662  0.03762  Biso   1.000  C
  C19      1.0000 0.52662  0.03762  0.52662  Biso   1.000  C
  C20      1.0000 0.52662  0.90914  0.52662  Biso   1.000  C
  C21      1.0000 0.90914  0.52662  0.52662  Biso   1.000  C
  C22      1.0000 0.03762  0.52662  0.52662  Biso   1.000  C
  C23      1.0000 0.52662  0.03762  0.90914  Biso   1.000  C
  C24      1.0000 0.52662  0.90914  0.03762  Biso   1.000  C
  C25      1.0000 0.38861  0.38861  0.11139  Biso   1.000  C
  C26      1.0000 0.44619  0.44619  0.05381  Biso   1.000  C
  C27      1.0000 0.11139  0.11139  0.38861  Biso   1.000  C
  C28      1.0000 0.05381  0.05381  0.44619  Biso   1.000  C
  C29      1.0000 0.38861  0.11139  0.11139  Biso   1.000  C
  C30      1.0000 0.44619  0.05381  0.05381  Biso   1.000  C
  C31      1.0000 0.11139  0.38861  0.38861  Biso   1.000  C
  C32      1.0000 0.05381  0.44619  0.44619  Biso   1.000  C
  C33      1.0000 0.38861  0.11139  0.38861  Biso   1.000  C
  C34      1.0000 0.44619  0.05381  0.44619  Biso   1.000  C
  C35      1.0000 0.11139  0.38861  0.11139  Biso   1.000  C
  C36      1.0000 0.05381  0.44619  0.05381  Biso   1.000  C
  C37      1.0000 0.61139  0.61139  0.88861  Biso   1.000  C
  C38      1.0000 0.55381  0.55381  0.94619  Biso   1.000  C
  C39      1.0000 0.88861  0.88861  0.61139  Biso   1.000  C
  C40      1.0000 0.94619  0.94619  0.55381  Biso   1.000  C
  C41      1.0000 0.88861  0.61139  0.88861  Biso   1.000  C
  C42      1.0000 0.94619  0.55381  0.94619  Biso   1.000  C
  C43      1.0000 0.61139  0.88861  0.61139  Biso   1.000  C
  C44      1.0000 0.55381  0.94619  0.55381  Biso   1.000  C
  C45      1.0000 0.88861  0.61139  0.61139  Biso   1.000  C
  C46      1.0000 0.94619  0.55381  0.55381  Biso   1.000  C
  C47      1.0000 0.61139  0.88861  0.88861  Biso   1.000  C
  C48      1.0000 0.55381  0.94619  0.94619  Biso   1.000  C
  O1       1.0000 0.25000  0.25000  0.25000  Biso   1.000  O
  O2       1.0000 0.75000  0.75000  0.75000  Biso   1.000  O
  O3       1.0000 0.36607  0.36607  0.07299  Biso   1.000  O
  O4       1.0000 0.36607  0.36607  0.19487  Biso   1.000  O
  O5       1.0000 0.07299  0.19487  0.36607  Biso   1.000  O
  O6       1.0000 0.19487  0.07299  0.36607  Biso   1.000  O
  O7       1.0000 0.36607  0.07299  0.19487  Biso   1.000  O
  O8       1.0000 0.36607  0.19487  0.07299  Biso   1.000  O
  O9       1.0000 0.07299  0.36607  0.36607  Biso   1.000  O
  O10      1.0000 0.19487  0.36607  0.36607  Biso   1.000  O
  O11      1.0000 0.36607  0.19487  0.36607  Biso   1.000  O
  O12      1.0000 0.36607  0.07299  0.36607  Biso   1.000  O
  O13      1.0000 0.07299  0.36607  0.19487  Biso   1.000  O
  O14      1.0000 0.19487  0.36607  0.07299  Biso   1.000  O
  O15      1.0000 0.63393  0.63393  0.92701  Biso   1.000  O
  O16      1.0000 0.63393  0.63393  0.80513  Biso   1.000  O
  O17      1.0000 0.80513  0.92701  0.63393  Biso   1.000  O
  O18      1.0000 0.92701  0.80513  0.63393  Biso   1.000  O
  O19      1.0000 0.92701  0.63393  0.80513  Biso   1.000  O
  O20      1.0000 0.80513  0.63393  0.92701  Biso   1.000  O
  O21      1.0000 0.63393  0.92701  0.63393  Biso   1.000  O
  O22      1.0000 0.63393  0.80513  0.63393  Biso   1.000  O
  O23      1.0000 0.80513  0.63393  0.63393  Biso   1.000  O
  O24      1.0000 0.92701  0.63393  0.63393  Biso   1.000  O
  O25      1.0000 0.63393  0.92701  0.80513  Biso   1.000  O
  O26      1.0000 0.63393  0.80513  0.92701  Biso   1.000  O
  Zn9      1.0000 0.00551  0.84012  0.13407  Biso   1.000  Zn
  Zn10     1.0000 0.83264  0.01299  0.13407  Biso   1.000  Zn
  Zn11     1.0000 0.00551  0.01299  0.13407  Biso   1.000  Zn
  Zn12     1.0000 0.00551  0.01299  0.96120  Biso   1.000  Zn
  Zn13     1.0000 0.59397  0.42462  0.54570  Biso   1.000  Zn
  Zn14     1.0000 0.41714  0.60145  0.54570  Biso   1.000  Zn
  Zn15     1.0000 0.41714  0.42462  0.72253  Biso   1.000  Zn
  Zn16     1.0000 0.41714  0.42462  0.54570  Biso   1.000  Zn
  H25      1.0000 0.77779  0.56809  0.38394  Biso   1.000  H
  H26      1.0000 0.56061  0.78527  0.38394  Biso   1.000  H
  H27      1.0000 0.25538  0.26286  0.90635  Biso   1.000  H
  H28      1.0000 0.25538  0.26286  0.68917  Biso   1.000  H
  H29      1.0000 0.77779  0.26286  0.38394  Biso   1.000  H
  H30      1.0000 0.56061  0.26286  0.38394  Biso   1.000  H
  H31      1.0000 0.25538  0.78527  0.68917  Biso   1.000  H
  H32      1.0000 0.25538  0.56809  0.90635  Biso   1.000  H
  H33      1.0000 0.77779  0.26286  0.68917  Biso   1.000  H
  H34      1.0000 0.56061  0.26286  0.90635  Biso   1.000  H
  H35      1.0000 0.25538  0.56809  0.38394  Biso   1.000  H
  H36      1.0000 0.25538  0.78527  0.38394  Biso   1.000  H
  C49      1.0000 0.79343  0.68335  0.31849  Biso   1.000  C
  C50      1.0000 0.75119  0.62995  0.36631  Biso   1.000  C
  C51      1.0000 0.67587  0.80091  0.31849  Biso   1.000  C
  C52      1.0000 0.62247  0.75867  0.36631  Biso   1.000  C
  C53      1.0000 0.18993  0.19741  0.92199  Biso   1.000  C
  C54      1.0000 0.23775  0.24523  0.87975  Biso   1.000  C
  C55      1.0000 0.18993  0.19741  0.80443  Biso   1.000  C
  C56      1.0000 0.23775  0.24523  0.75104  Biso   1.000  C
  C57      1.0000 0.79343  0.19741  0.31849  Biso   1.000  C
  C58      1.0000 0.75119  0.24523  0.36631  Biso   1.000  C
  C59      1.0000 0.67587  0.19741  0.31849  Biso   1.000  C
  C60      1.0000 0.62247  0.24523  0.36631  Biso   1.000  C
  C61      1.0000 0.18993  0.80091  0.80443  Biso   1.000  C
  C62      1.0000 0.23775  0.75867  0.75104  Biso   1.000  C
  C63      1.0000 0.18993  0.68335  0.92199  Biso   1.000  C
  C64      1.0000 0.23775  0.62995  0.87975  Biso   1.000  C
  C65      1.0000 0.79343  0.19741  0.80443  Biso   1.000  C
  C66      1.0000 0.75119  0.24523  0.75104  Biso   1.000  C
  C67      1.0000 0.67587  0.19741  0.92199  Biso   1.000  C
  C68      1.0000 0.62247  0.24523  0.87975  Biso   1.000  C
  C69      1.0000 0.18993  0.68335  0.31849  Biso   1.000  C
  C70      1.0000 0.23775  0.62995  0.36631  Biso   1.000  C
  C71      1.0000 0.18993  0.80091  0.31849  Biso   1.000  C
  C72      1.0000 0.23775  0.75867  0.36631  Biso   1.000  C
  C73      1.0000 0.76792  0.77540  0.28522  Biso   1.000  C
  C74      1.0000 0.66412  0.67160  0.38903  Biso   1.000  C
  C75      1.0000 0.60295  0.61043  0.45019  Biso   1.000  C
  C76      1.0000 0.82451  0.83199  0.22863  Biso   1.000  C
  C77      1.0000 0.15665  0.16413  0.89649  Biso   1.000  C
  C78      1.0000 0.26046  0.26794  0.79268  Biso   1.000  C
  C79      1.0000 0.32163  0.32911  0.73151  Biso   1.000  C
  C80      1.0000 0.10007  0.10755  0.95307  Biso   1.000  C
  C81      1.0000 0.76792  0.16413  0.28522  Biso   1.000  C
  C82      1.0000 0.66412  0.26794  0.38903  Biso   1.000  C
  C83      1.0000 0.60295  0.32911  0.45019  Biso   1.000  C
  C84      1.0000 0.82451  0.10755  0.22863  Biso   1.000  C
  C85      1.0000 0.15665  0.77540  0.89649  Biso   1.000  C
  C86      1.0000 0.26046  0.67160  0.79268  Biso   1.000  C
  C87      1.0000 0.32163  0.61043  0.73151  Biso   1.000  C
  C88      1.0000 0.10007  0.83199  0.95307  Biso   1.000  C
  C89      1.0000 0.76792  0.16413  0.89649  Biso   1.000  C
  C90      1.0000 0.66412  0.26794  0.79268  Biso   1.000  C
  C91      1.0000 0.60295  0.32911  0.73151  Biso   1.000  C
  C92      1.0000 0.82451  0.10755  0.95307  Biso   1.000  C
  C93      1.0000 0.15665  0.77540  0.28522  Biso   1.000  C
  C94      1.0000 0.26046  0.67160  0.38903  Biso   1.000  C
  C95      1.0000 0.32163  0.61043  0.45019  Biso   1.000  C
  C96      1.0000 0.10007  0.83199  0.22863  Biso   1.000  C
  O27      1.0000 0.64200  0.52316  0.47430  Biso   1.000  O
  O28      1.0000 0.90401  0.79513  0.20731  Biso   1.000  O
  O29      1.0000 0.51568  0.64948  0.47430  Biso   1.000  O
  O30      1.0000 0.78765  0.91149  0.20731  Biso   1.000  O
  O31      1.0000 0.34574  0.35322  0.77056  Biso   1.000  O
  O32      1.0000 0.07875  0.08623  0.03257  Biso   1.000  O
  O33      1.0000 0.34574  0.35322  0.64424  Biso   1.000  O
  O34      1.0000 0.07875  0.08623  0.91621  Biso   1.000  O
  O35      1.0000 0.64200  0.35322  0.47430  Biso   1.000  O
  O36      1.0000 0.90401  0.08623  0.20731  Biso   1.000  O
  O37      1.0000 0.51568  0.35322  0.47430  Biso   1.000  O
  O38      1.0000 0.78765  0.08623  0.20731  Biso   1.000  O
  O39      1.0000 0.34574  0.64948  0.64424  Biso   1.000  O
  O40      1.0000 0.07875  0.91149  0.91621  Biso   1.000  O
  O41      1.0000 0.34574  0.52316  0.77056  Biso   1.000  O
  O42      1.0000 0.07875  0.79513  0.03257  Biso   1.000  O
  O43      1.0000 0.64200  0.35322  0.64424  Biso   1.000  O
  O44      1.0000 0.90401  0.08623  0.91621  Biso   1.000  O
  O45      1.0000 0.51568  0.35322  0.77056  Biso   1.000  O
  O46      1.0000 0.78765  0.08623  0.03257  Biso   1.000  O
  O47      1.0000 0.34574  0.52316  0.47430  Biso   1.000  O
  O48      1.0000 0.07875  0.79513  0.20731  Biso   1.000  O
  O49      1.0000 0.34574  0.64948  0.47430  Biso   1.000  O
  O50      1.0000 0.07875  0.91149  0.20731  Biso   1.000  O
  O51      1.0000 0.46417  0.47165  0.59273  Biso   1.000  O
