data_image0
_cell_length_a       18.2115
_cell_length_b       18.2115
_cell_length_c       18.2115
_cell_angle_alpha    60
_cell_angle_beta     60
_cell_angle_gamma    60

_symmetry_space_group_name_H-M    "P 1"
_symmetry_int_tables_number       1

loop_
  _symmetry_equiv_pos_as_xyz
  'x, y, z'

loop_
  _atom_site_label
  _atom_site_occupancy
  _atom_site_fract_x
  _atom_site_fract_y
  _atom_site_fract_z
  _atom_site_thermal_displace_type
  _atom_site_B_iso_or_equiv
  _atom_site_type_symbol
  C1       1.0000 0.29361  0.29361  0.11917  Biso   1.000  C
  C2       1.0000 0.29361  0.29361  0.29361  Biso   1.000  C
  C3       1.0000 0.11917  0.29361  0.29361  Biso   1.000  C
  C4       1.0000 0.29361  0.11917  0.29361  Biso   1.000  C
  C5       1.0000 0.70639  0.70639  0.88083  Biso   1.000  C
  C6       1.0000 0.70639  0.70639  0.70639  Biso   1.000  C
  C7       1.0000 0.70639  0.88083  0.70639  Biso   1.000  C
  C8       1.0000 0.88083  0.70639  0.70639  Biso   1.000  C
  C9       1.0000 0.45530  0.45530  0.93770  Biso   1.000  C
  C10      1.0000 0.45530  0.45530  0.15170  Biso   1.000  C
  C11      1.0000 0.93770  0.15170  0.45530  Biso   1.000  C
  C12      1.0000 0.15170  0.93770  0.45530  Biso   1.000  C
  C13      1.0000 0.45530  0.93770  0.15170  Biso   1.000  C
  C14      1.0000 0.45530  0.15170  0.93770  Biso   1.000  C
  C15      1.0000 0.93770  0.45530  0.45530  Biso   1.000  C
  C16      1.0000 0.15170  0.45530  0.45530  Biso   1.000  C
  C17      1.0000 0.45530  0.15170  0.45530  Biso   1.000  C
  C18      1.0000 0.45530  0.93770  0.45530  Biso   1.000  C
  C19      1.0000 0.93770  0.45530  0.15170  Biso   1.000  C
  C20      1.0000 0.15170  0.45530  0.93770  Biso   1.000  C
  C21      1.0000 0.54470  0.54470  0.06230  Biso   1.000  C
  C22      1.0000 0.54470  0.54470  0.84830  Biso   1.000  C
  C23      1.0000 0.84830  0.06230  0.54470  Biso   1.000  C
  C24      1.0000 0.06230  0.84830  0.54470  Biso   1.000  C
  C25      1.0000 0.06230  0.54470  0.84830  Biso   1.000  C
  C26      1.0000 0.84830  0.54470  0.06230  Biso   1.000  C
  C27      1.0000 0.54470  0.06230  0.54470  Biso   1.000  C
  C28      1.0000 0.54470  0.84830  0.54470  Biso   1.000  C
  C29      1.0000 0.84830  0.54470  0.54470  Biso   1.000  C
  C30      1.0000 0.06230  0.54470  0.54470  Biso   1.000  C
  C31      1.0000 0.54470  0.06230  0.84830  Biso   1.000  C
  C32      1.0000 0.54470  0.84830  0.06230  Biso   1.000  C
  C33      1.0000 0.47300  0.47300  0.96450  Biso   1.000  C
  C34      1.0000 0.47300  0.47300  0.08950  Biso   1.000  C
  C35      1.0000 0.96450  0.08950  0.47300  Biso   1.000  C
  C36      1.0000 0.08950  0.96450  0.47300  Biso   1.000  C
  C37      1.0000 0.47300  0.96450  0.08950  Biso   1.000  C
  C38      1.0000 0.47300  0.08950  0.96450  Biso   1.000  C
  C39      1.0000 0.96450  0.47300  0.47300  Biso   1.000  C
  C40      1.0000 0.08950  0.47300  0.47300  Biso   1.000  C
  C41      1.0000 0.47300  0.08950  0.47300  Biso   1.000  C
  C42      1.0000 0.47300  0.96450  0.47300  Biso   1.000  C
  C43      1.0000 0.96450  0.47300  0.08950  Biso   1.000  C
  C44      1.0000 0.08950  0.47300  0.96450  Biso   1.000  C
  C45      1.0000 0.52700  0.52700  0.03550  Biso   1.000  C
  C46      1.0000 0.52700  0.52700  0.91050  Biso   1.000  C
  C47      1.0000 0.91050  0.03550  0.52700  Biso   1.000  C
  C48      1.0000 0.03550  0.91050  0.52700  Biso   1.000  C
  C49      1.0000 0.03550  0.52700  0.91050  Biso   1.000  C
  C50      1.0000 0.91050  0.52700  0.03550  Biso   1.000  C
  C51      1.0000 0.52700  0.03550  0.52700  Biso   1.000  C
  C52      1.0000 0.52700  0.91050  0.52700  Biso   1.000  C
  C53      1.0000 0.91050  0.52700  0.52700  Biso   1.000  C
  C54      1.0000 0.03550  0.52700  0.52700  Biso   1.000  C
  C55      1.0000 0.52700  0.03550  0.91050  Biso   1.000  C
  C56      1.0000 0.52700  0.91050  0.03550  Biso   1.000  C
  C57      1.0000 0.38860  0.38860  0.11140  Biso   1.000  C
  C58      1.0000 0.44600  0.44600  0.05400  Biso   1.000  C
  C59      1.0000 0.11140  0.11140  0.38860  Biso   1.000  C
  C60      1.0000 0.05400  0.05400  0.44600  Biso   1.000  C
  C61      1.0000 0.38860  0.11140  0.11140  Biso   1.000  C
  C62      1.0000 0.44600  0.05400  0.05400  Biso   1.000  C
  C63      1.0000 0.11140  0.38860  0.38860  Biso   1.000  C
  C64      1.0000 0.05400  0.44600  0.44600  Biso   1.000  C
  C65      1.0000 0.38860  0.11140  0.38860  Biso   1.000  C
  C66      1.0000 0.44600  0.05400  0.44600  Biso   1.000  C
  C67      1.0000 0.11140  0.38860  0.11140  Biso   1.000  C
  C68      1.0000 0.05400  0.44600  0.05400  Biso   1.000  C
  C69      1.0000 0.61140  0.61140  0.88860  Biso   1.000  C
  C70      1.0000 0.55400  0.55400  0.94600  Biso   1.000  C
  C71      1.0000 0.88860  0.88860  0.61140  Biso   1.000  C
  C72      1.0000 0.94600  0.94600  0.55400  Biso   1.000  C
  C73      1.0000 0.88860  0.61140  0.88860  Biso   1.000  C
  C74      1.0000 0.94600  0.55400  0.94600  Biso   1.000  C
  C75      1.0000 0.61140  0.88860  0.61140  Biso   1.000  C
  C76      1.0000 0.55400  0.94600  0.55400  Biso   1.000  C
  C77      1.0000 0.88860  0.61140  0.61140  Biso   1.000  C
  C78      1.0000 0.94600  0.55400  0.55400  Biso   1.000  C
  C79      1.0000 0.61140  0.88860  0.88860  Biso   1.000  C
  C80      1.0000 0.55400  0.94600  0.94600  Biso   1.000  C
  C81      1.0000 0.25000  0.25000  0.25000  Biso   1.000  C
  C82      1.0000 0.75000  0.75000  0.75000  Biso   1.000  C
  C83      1.0000 0.36611  0.36611  0.07317  Biso   1.000  C
  C84      1.0000 0.36611  0.36611  0.19461  Biso   1.000  C
  C85      1.0000 0.07317  0.19461  0.36611  Biso   1.000  C
  C86      1.0000 0.19461  0.07317  0.36611  Biso   1.000  C
  C87      1.0000 0.36611  0.07317  0.19461  Biso   1.000  C
  C88      1.0000 0.36611  0.19461  0.07317  Biso   1.000  C
  C89      1.0000 0.07317  0.36611  0.36611  Biso   1.000  C
  C90      1.0000 0.19461  0.36611  0.36611  Biso   1.000  C
  C91      1.0000 0.36611  0.19461  0.36611  Biso   1.000  C
  C92      1.0000 0.36611  0.07317  0.36611  Biso   1.000  C
  C93      1.0000 0.07317  0.36611  0.19461  Biso   1.000  C
  C94      1.0000 0.19461  0.36611  0.07317  Biso   1.000  C
  C95      1.0000 0.63389  0.63389  0.92683  Biso   1.000  C
  C96      1.0000 0.63389  0.63389  0.80539  Biso   1.000  C
  C97      1.0000 0.80539  0.92683  0.63389  Biso   1.000  C
  C98      1.0000 0.92683  0.80539  0.63389  Biso   1.000  C
  C99      1.0000 0.92683  0.63389  0.80539  Biso   1.000  C
  C100     1.0000 0.80539  0.63389  0.92683  Biso   1.000  C
  C101     1.0000 0.63389  0.92683  0.63389  Biso   1.000  C
  C102     1.0000 0.63389  0.80539  0.63389  Biso   1.000  C
  C103     1.0000 0.80539  0.63389  0.63389  Biso   1.000  C
  C104     1.0000 0.92683  0.63389  0.63389  Biso   1.000  C
  C105     1.0000 0.63389  0.92683  0.80539  Biso   1.000  C
  C106     1.0000 0.63389  0.80539  0.92683  Biso   1.000  C
  O1       1.0000 0.00000  0.00000  0.00000  Biso   1.000  O
  O2       1.0000 0.57775  0.41609  0.59008  Biso   1.000  O
  O3       1.0000 0.57775  0.59022  0.59008  Biso   1.000  O
  O4       1.0000 0.00000  0.17414  0.00000  Biso   1.000  O
  O5       1.0000 0.99996  0.99992  0.17434  Biso   1.000  O
  O6       1.0000 0.17391  0.00018  0.99987  Biso   1.000  O
  O7       1.0000 0.57779  0.59030  0.41574  Biso   1.000  O
  O8       1.0000 0.40384  0.59004  0.59021  Biso   1.000  O
  O9       1.0000 0.82900  0.84284  0.36405  Biso   1.000  O
  O10      1.0000 0.82805  0.84439  0.13677  Biso   1.000  O
  O11      1.0000 0.82515  0.13682  0.84524  Biso   1.000  O
  O12      1.0000 0.74874  0.45198  0.22603  Biso   1.000  O
  O13      1.0000 0.74969  0.22530  0.45331  Biso   1.000  O
  O14      1.0000 0.75259  0.22330  0.74484  Biso   1.000  O
  O15      1.0000 0.74874  0.74738  0.22603  Biso   1.000  O
  O16      1.0000 0.74969  0.74583  0.45331  Biso   1.000  O
  O17      1.0000 0.75259  0.45340  0.74484  Biso   1.000  O
  O18      1.0000 0.82900  0.13824  0.36405  Biso   1.000  O
  O19      1.0000 0.82805  0.36492  0.13677  Biso   1.000  O
  O20      1.0000 0.82515  0.36692  0.84524  Biso   1.000  O
  O21      1.0000 0.91254  0.91158  0.17882  Biso   1.000  O
  O22      1.0000 0.84834  0.84687  0.23826  Biso   1.000  O
  O23      1.0000 0.81330  0.82138  0.33761  Biso   1.000  O
  O24      1.0000 0.81335  0.82282  0.20019  Biso   1.000  O
  O25      1.0000 0.17483  0.91219  0.91233  Biso   1.000  O
  O26      1.0000 0.81174  0.20014  0.82148  Biso   1.000  O
  O27      1.0000 0.66520  0.41903  0.41126  Biso   1.000  O
  O28      1.0000 0.72941  0.34955  0.35182  Biso   1.000  O
  O29      1.0000 0.76445  0.38837  0.25247  Biso   1.000  O
  O30      1.0000 0.76440  0.25244  0.38989  Biso   1.000  O
  O31      1.0000 0.40292  0.41544  0.67775  Biso   1.000  O
  O32      1.0000 0.76601  0.24944  0.76860  Biso   1.000  O
  O33      1.0000 0.66520  0.67864  0.41126  Biso   1.000  O
  O34      1.0000 0.72941  0.74335  0.35182  Biso   1.000  O
  O35      1.0000 0.76445  0.76885  0.25247  Biso   1.000  O
  O36      1.0000 0.76440  0.76740  0.38989  Biso   1.000  O
  O37      1.0000 0.40292  0.67803  0.67775  Biso   1.000  O
  O38      1.0000 0.76601  0.39009  0.76860  Biso   1.000  O
  O39      1.0000 0.91254  0.17120  0.17882  Biso   1.000  O
  O40      1.0000 0.84834  0.24067  0.23826  Biso   1.000  O
  O41      1.0000 0.81330  0.20185  0.33761  Biso   1.000  O
  O42      1.0000 0.81335  0.33778  0.20019  Biso   1.000  O
  O43      1.0000 0.17483  0.17479  0.91233  Biso   1.000  O
  O44      1.0000 0.81173  0.34078  0.82148  Biso   1.000  O
  O45      1.0000 0.17285  0.91128  0.17872  Biso   1.000  O
  O46      1.0000 0.90915  0.17588  0.91323  Biso   1.000  O
  O47      1.0000 0.84812  0.24089  0.84424  Biso   1.000  O
  O48      1.0000 0.40489  0.67894  0.41136  Biso   1.000  O
  O49      1.0000 0.66860  0.41434  0.67686  Biso   1.000  O
  O50      1.0000 0.72963  0.34933  0.74584  Biso   1.000  O
  O51      1.0000 0.93004  0.92788  0.22275  Biso   1.000  O
  O52      1.0000 0.92804  0.92709  0.09592  Biso   1.000  O
  O53      1.0000 0.22413  0.92770  0.92863  Biso   1.000  O
  O54      1.0000 0.09362  0.92750  0.92853  Biso   1.000  O
  O55      1.0000 0.92883  0.09418  0.92694  Biso   1.000  O
  O56      1.0000 0.64771  0.49676  0.36733  Biso   1.000  O
  O57      1.0000 0.64970  0.36714  0.49416  Biso   1.000  O
  O58      1.0000 0.35362  0.49654  0.66145  Biso   1.000  O
  O59      1.0000 0.48412  0.36574  0.66155  Biso   1.000  O
  O60      1.0000 0.64892  0.36604  0.66314  Biso   1.000  O
  O61      1.0000 0.64771  0.66235  0.36733  Biso   1.000  O
  O62      1.0000 0.64970  0.66313  0.49416  Biso   1.000  O
  O63      1.0000 0.35362  0.66253  0.66145  Biso   1.000  O
  O64      1.0000 0.48412  0.66273  0.66155  Biso   1.000  O
  O65      1.0000 0.64892  0.49604  0.66314  Biso   1.000  O
  O66      1.0000 0.93004  0.09347  0.22275  Biso   1.000  O
  O67      1.0000 0.92804  0.22308  0.09592  Biso   1.000  O
  O68      1.0000 0.22413  0.09368  0.92863  Biso   1.000  O
  O69      1.0000 0.09362  0.22448  0.92853  Biso   1.000  O
  O70      1.0000 0.92883  0.22419  0.92694  Biso   1.000  O
  O71      1.0000 0.04205  0.04487  0.04234  Biso   1.000  O
  O72      1.0000 0.09394  0.92798  0.22424  Biso   1.000  O
  O73      1.0000 0.22384  0.92808  0.09413  Biso   1.000  O
  O74      1.0000 0.53570  0.54535  0.54774  Biso   1.000  O
  O75      1.0000 0.48381  0.66225  0.36584  Biso   1.000  O
