data_image0
_cell_length_a       18.2888
_cell_length_b       18.2888
_cell_length_c       18.2888
_cell_angle_alpha    60
_cell_angle_beta     60
_cell_angle_gamma    60

_symmetry_space_group_name_H-M    "P 1"
_symmetry_int_tables_number       1

loop_
  _symmetry_equiv_pos_as_xyz
  'x, y, z'

loop_
  _atom_site_label
  _atom_site_occupancy
  _atom_site_fract_x
  _atom_site_fract_y
  _atom_site_fract_z
  _atom_site_thermal_displace_type
  _atom_site_B_iso_or_equiv
  _atom_site_type_symbol
  C1       1.0000 0.29344  0.29345  0.11966  Biso   1.000  C
  C2       1.0000 0.29344  0.29345  0.29345  Biso   1.000  C
  C3       1.0000 0.11965  0.29345  0.29345  Biso   1.000  C
  C4       1.0000 0.29344  0.11966  0.29345  Biso   1.000  C
  C5       1.0000 0.70655  0.70656  0.88034  Biso   1.000  C
  C6       1.0000 0.70656  0.70655  0.70655  Biso   1.000  C
  C7       1.0000 0.70655  0.88034  0.70656  Biso   1.000  C
  C8       1.0000 0.88035  0.70655  0.70655  Biso   1.000  C
  C9       1.0000 0.45490  0.45490  0.93490  Biso   1.000  C
  C10      1.0000 0.45490  0.45490  0.15530  Biso   1.000  C
  C11      1.0000 0.93490  0.15530  0.45490  Biso   1.000  C
  C12      1.0000 0.15530  0.93490  0.45490  Biso   1.000  C
  C13      1.0000 0.45490  0.93490  0.15530  Biso   1.000  C
  C14      1.0000 0.45490  0.15530  0.93490  Biso   1.000  C
  C15      1.0000 0.93490  0.45490  0.45490  Biso   1.000  C
  C16      1.0000 0.15530  0.45490  0.45490  Biso   1.000  C
  C17      1.0000 0.45490  0.15530  0.45490  Biso   1.000  C
  C18      1.0000 0.45490  0.93490  0.45490  Biso   1.000  C
  C19      1.0000 0.93490  0.45490  0.15530  Biso   1.000  C
  C20      1.0000 0.15530  0.45490  0.93490  Biso   1.000  C
  C21      1.0000 0.54510  0.54510  0.06510  Biso   1.000  C
  C22      1.0000 0.54510  0.54510  0.84470  Biso   1.000  C
  C23      1.0000 0.84470  0.06510  0.54510  Biso   1.000  C
  C24      1.0000 0.06510  0.84470  0.54510  Biso   1.000  C
  C25      1.0000 0.06510  0.54510  0.84470  Biso   1.000  C
  C26      1.0000 0.84470  0.54510  0.06510  Biso   1.000  C
  C27      1.0000 0.54510  0.06510  0.54510  Biso   1.000  C
  C28      1.0000 0.54510  0.84470  0.54510  Biso   1.000  C
  C29      1.0000 0.84470  0.54510  0.54510  Biso   1.000  C
  C30      1.0000 0.06510  0.54510  0.54510  Biso   1.000  C
  C31      1.0000 0.54510  0.06510  0.84470  Biso   1.000  C
  C32      1.0000 0.54510  0.84470  0.06510  Biso   1.000  C
  C33      1.0000 0.47314  0.47314  0.96174  Biso   1.000  C
  C34      1.0000 0.47314  0.47314  0.09198  Biso   1.000  C
  C35      1.0000 0.96174  0.09198  0.47314  Biso   1.000  C
  C36      1.0000 0.09198  0.96174  0.47314  Biso   1.000  C
  C37      1.0000 0.47314  0.96174  0.09198  Biso   1.000  C
  C38      1.0000 0.47314  0.09198  0.96174  Biso   1.000  C
  C39      1.0000 0.96174  0.47314  0.47314  Biso   1.000  C
  C40      1.0000 0.09198  0.47314  0.47314  Biso   1.000  C
  C41      1.0000 0.47314  0.09198  0.47314  Biso   1.000  C
  C42      1.0000 0.47314  0.96174  0.47314  Biso   1.000  C
  C43      1.0000 0.96174  0.47314  0.09198  Biso   1.000  C
  C44      1.0000 0.09198  0.47314  0.96174  Biso   1.000  C
  C45      1.0000 0.52686  0.52686  0.03826  Biso   1.000  C
  C46      1.0000 0.52686  0.52686  0.90802  Biso   1.000  C
  C47      1.0000 0.90802  0.03826  0.52686  Biso   1.000  C
  C48      1.0000 0.03826  0.90802  0.52686  Biso   1.000  C
  C49      1.0000 0.03826  0.52686  0.90802  Biso   1.000  C
  C50      1.0000 0.90802  0.52686  0.03826  Biso   1.000  C
  C51      1.0000 0.52686  0.03826  0.52686  Biso   1.000  C
  C52      1.0000 0.52686  0.90802  0.52686  Biso   1.000  C
  C53      1.0000 0.90802  0.52686  0.52686  Biso   1.000  C
  C54      1.0000 0.03826  0.52686  0.52686  Biso   1.000  C
  C55      1.0000 0.52686  0.03826  0.90802  Biso   1.000  C
  C56      1.0000 0.52686  0.90802  0.03826  Biso   1.000  C
  C57      1.0000 0.38849  0.38849  0.11151  Biso   1.000  C
  C58      1.0000 0.44624  0.44624  0.05376  Biso   1.000  C
  C59      1.0000 0.11151  0.11151  0.38849  Biso   1.000  C
  C60      1.0000 0.05376  0.05376  0.44624  Biso   1.000  C
  C61      1.0000 0.38849  0.11151  0.11151  Biso   1.000  C
  C62      1.0000 0.44624  0.05376  0.05376  Biso   1.000  C
  C63      1.0000 0.11151  0.38849  0.38849  Biso   1.000  C
  C64      1.0000 0.05376  0.44624  0.44624  Biso   1.000  C
  C65      1.0000 0.38849  0.11151  0.38849  Biso   1.000  C
  C66      1.0000 0.44624  0.05376  0.44624  Biso   1.000  C
  C67      1.0000 0.11151  0.38849  0.11151  Biso   1.000  C
  C68      1.0000 0.05376  0.44624  0.05376  Biso   1.000  C
  C69      1.0000 0.61151  0.61151  0.88849  Biso   1.000  C
  C70      1.0000 0.55376  0.55376  0.94624  Biso   1.000  C
  C71      1.0000 0.88849  0.88849  0.61151  Biso   1.000  C
  C72      1.0000 0.94624  0.94624  0.55376  Biso   1.000  C
  C73      1.0000 0.88849  0.61151  0.88849  Biso   1.000  C
  C74      1.0000 0.94624  0.55376  0.94624  Biso   1.000  C
  C75      1.0000 0.61151  0.88849  0.61151  Biso   1.000  C
  C76      1.0000 0.55376  0.94624  0.55376  Biso   1.000  C
  C77      1.0000 0.88849  0.61151  0.61151  Biso   1.000  C
  C78      1.0000 0.94624  0.55376  0.55376  Biso   1.000  C
  C79      1.0000 0.61151  0.88849  0.88849  Biso   1.000  C
  C80      1.0000 0.55376  0.94624  0.94624  Biso   1.000  C
  C81      1.0000 0.25000  0.25000  0.25000  Biso   1.000  C
  C82      1.0000 0.75000  0.75000  0.75000  Biso   1.000  C
  C83      1.0000 0.36620  0.36620  0.07286  Biso   1.000  C
  C84      1.0000 0.36620  0.36620  0.19474  Biso   1.000  C
  C85      1.0000 0.07286  0.19474  0.36620  Biso   1.000  C
  C86      1.0000 0.19474  0.07286  0.36620  Biso   1.000  C
  C87      1.0000 0.36620  0.07286  0.19474  Biso   1.000  C
  C88      1.0000 0.36620  0.19474  0.07286  Biso   1.000  C
  C89      1.0000 0.07286  0.36620  0.36620  Biso   1.000  C
  C90      1.0000 0.19474  0.36620  0.36620  Biso   1.000  C
  C91      1.0000 0.36620  0.19474  0.36620  Biso   1.000  C
  C92      1.0000 0.36620  0.07286  0.36620  Biso   1.000  C
  C93      1.0000 0.07286  0.36620  0.19474  Biso   1.000  C
  C94      1.0000 0.19474  0.36620  0.07286  Biso   1.000  C
  C95      1.0000 0.63380  0.63380  0.92714  Biso   1.000  C
  C96      1.0000 0.63380  0.63380  0.80526  Biso   1.000  C
  C97      1.0000 0.80526  0.92714  0.63380  Biso   1.000  C
  C98      1.0000 0.92714  0.80526  0.63380  Biso   1.000  C
  C99      1.0000 0.92714  0.63380  0.80526  Biso   1.000  C
  C100     1.0000 0.80526  0.63380  0.92714  Biso   1.000  C
  C101     1.0000 0.63380  0.92714  0.63380  Biso   1.000  C
  C102     1.0000 0.63380  0.80526  0.63380  Biso   1.000  C
  C103     1.0000 0.80526  0.63380  0.63380  Biso   1.000  C
  C104     1.0000 0.92714  0.63380  0.63380  Biso   1.000  C
  C105     1.0000 0.63380  0.92714  0.80526  Biso   1.000  C
  C106     1.0000 0.63380  0.80526  0.92714  Biso   1.000  C
  O1       1.0000 0.50223  0.51976  0.33483  Biso   1.000  O
  O2       1.0000 0.50224  0.51975  0.50867  Biso   1.000  O
  O3       1.0000 0.32841  0.51976  0.50866  Biso   1.000  O
  O4       1.0000 0.50224  0.34593  0.50867  Biso   1.000  O
  O5       1.0000 0.91568  0.93320  0.09593  Biso   1.000  O
  O6       1.0000 0.91568  0.93320  0.92210  Biso   1.000  O
  O7       1.0000 0.91569  0.10702  0.92210  Biso   1.000  O
  O8       1.0000 0.08952  0.93319  0.92210  Biso   1.000  O
  O9       1.0000 0.66403  0.68154  0.15039  Biso   1.000  O
  O10      1.0000 0.66403  0.68154  0.37024  Biso   1.000  O
  O11      1.0000 0.14397  0.38133  0.67045  Biso   1.000  O
  O12      1.0000 0.36382  0.16148  0.67045  Biso   1.000  O
  O13      1.0000 0.66403  0.16148  0.37024  Biso   1.000  O
  O14      1.0000 0.66403  0.38133  0.15039  Biso   1.000  O
  O15      1.0000 0.14397  0.68154  0.67045  Biso   1.000  O
  O16      1.0000 0.36382  0.68154  0.67045  Biso   1.000  O
  O17      1.0000 0.66403  0.38133  0.67045  Biso   1.000  O
  O18      1.0000 0.66403  0.16148  0.67045  Biso   1.000  O
  O19      1.0000 0.14397  0.68154  0.37024  Biso   1.000  O
  O20      1.0000 0.36382  0.68154  0.15039  Biso   1.000  O
  O21      1.0000 0.75389  0.77141  0.28038  Biso   1.000  O
  O22      1.0000 0.75389  0.77141  0.06053  Biso   1.000  O
  O23      1.0000 0.05410  0.29147  0.76031  Biso   1.000  O
  O24      1.0000 0.27395  0.07162  0.76031  Biso   1.000  O
  O25      1.0000 0.27395  0.77141  0.06053  Biso   1.000  O
  O26      1.0000 0.05410  0.77141  0.28038  Biso   1.000  O
  O27      1.0000 0.75389  0.29147  0.76031  Biso   1.000  O
  O28      1.0000 0.75389  0.07162  0.76031  Biso   1.000  O
  O29      1.0000 0.05410  0.77141  0.76031  Biso   1.000  O
  O30      1.0000 0.27395  0.77141  0.76031  Biso   1.000  O
  O31      1.0000 0.75389  0.29147  0.06053  Biso   1.000  O
  O32      1.0000 0.75389  0.07162  0.28038  Biso   1.000  O
  O33      1.0000 0.68228  0.69980  0.17727  Biso   1.000  O
  O34      1.0000 0.68228  0.69980  0.30685  Biso   1.000  O
  O35      1.0000 0.17085  0.31795  0.68870  Biso   1.000  O
  O36      1.0000 0.30043  0.18836  0.68870  Biso   1.000  O
  O37      1.0000 0.68228  0.18836  0.30685  Biso   1.000  O
  O38      1.0000 0.68228  0.31795  0.17727  Biso   1.000  O
  O39      1.0000 0.17085  0.69980  0.68870  Biso   1.000  O
  O40      1.0000 0.30043  0.69980  0.68870  Biso   1.000  O
  O41      1.0000 0.68228  0.31795  0.68870  Biso   1.000  O
  O42      1.0000 0.68228  0.18836  0.68870  Biso   1.000  O
  O43      1.0000 0.17085  0.69980  0.30685  Biso   1.000  O
  O44      1.0000 0.30043  0.69980  0.17727  Biso   1.000  O
  O45      1.0000 0.73564  0.75315  0.25350  Biso   1.000  O
  O46      1.0000 0.73564  0.75315  0.12391  Biso   1.000  O
  O47      1.0000 0.11749  0.26459  0.74206  Biso   1.000  O
  O48      1.0000 0.24707  0.13500  0.74206  Biso   1.000  O
  O49      1.0000 0.24707  0.75315  0.12391  Biso   1.000  O
  O50      1.0000 0.11749  0.75315  0.25350  Biso   1.000  O
  O51      1.0000 0.73564  0.26459  0.74206  Biso   1.000  O
  O52      1.0000 0.73564  0.13500  0.74206  Biso   1.000  O
  O53      1.0000 0.11749  0.75315  0.74206  Biso   1.000  O
  O54      1.0000 0.24707  0.75315  0.74206  Biso   1.000  O
  O55      1.0000 0.73564  0.26459  0.12391  Biso   1.000  O
  O56      1.0000 0.73564  0.13500  0.25350  Biso   1.000  O
  O57      1.0000 0.59731  0.61483  0.32668  Biso   1.000  O
  O58      1.0000 0.65534  0.67286  0.26865  Biso   1.000  O
  O59      1.0000 0.32026  0.33777  0.60373  Biso   1.000  O
  O60      1.0000 0.26222  0.27974  0.66177  Biso   1.000  O
  O61      1.0000 0.59731  0.33777  0.32668  Biso   1.000  O
  O62      1.0000 0.65534  0.27974  0.26865  Biso   1.000  O
  O63      1.0000 0.32026  0.61483  0.60373  Biso   1.000  O
  O64      1.0000 0.26222  0.67286  0.66177  Biso   1.000  O
  O65      1.0000 0.59731  0.33777  0.60373  Biso   1.000  O
  O66      1.0000 0.65534  0.27974  0.66177  Biso   1.000  O
  O67      1.0000 0.32026  0.61483  0.32668  Biso   1.000  O
  O68      1.0000 0.26222  0.67286  0.26865  Biso   1.000  O
  O69      1.0000 0.82061  0.83812  0.10409  Biso   1.000  O
  O70      1.0000 0.76258  0.78009  0.16212  Biso   1.000  O
  O71      1.0000 0.09766  0.11518  0.82703  Biso   1.000  O
  O72      1.0000 0.15569  0.17321  0.76900  Biso   1.000  O
  O73      1.0000 0.09766  0.83812  0.10409  Biso   1.000  O
  O74      1.0000 0.15569  0.78009  0.16212  Biso   1.000  O
  O75      1.0000 0.82061  0.11518  0.82703  Biso   1.000  O
  O76      1.0000 0.76258  0.17321  0.76900  Biso   1.000  O
  O77      1.0000 0.09766  0.83812  0.82703  Biso   1.000  O
  O78      1.0000 0.15569  0.78009  0.76900  Biso   1.000  O
  O79      1.0000 0.82061  0.11518  0.10409  Biso   1.000  O
  O80      1.0000 0.76258  0.17321  0.16212  Biso   1.000  O
  O81      1.0000 0.45878  0.47630  0.46521  Biso   1.000  O
  O82      1.0000 0.95914  0.97665  0.96556  Biso   1.000  O
  O83      1.0000 0.57496  0.59247  0.28803  Biso   1.000  O
  O84      1.0000 0.57496  0.59247  0.41004  Biso   1.000  O
  O85      1.0000 0.28161  0.42113  0.58138  Biso   1.000  O
  O86      1.0000 0.40361  0.29912  0.58138  Biso   1.000  O
  O87      1.0000 0.57496  0.29912  0.41004  Biso   1.000  O
  O88      1.0000 0.57496  0.42113  0.28803  Biso   1.000  O
  O89      1.0000 0.28161  0.59247  0.58138  Biso   1.000  O
  O90      1.0000 0.40361  0.59247  0.58138  Biso   1.000  O
  O91      1.0000 0.57496  0.42113  0.58138  Biso   1.000  O
  O92      1.0000 0.57496  0.29912  0.58138  Biso   1.000  O
  O93      1.0000 0.28161  0.59247  0.41004  Biso   1.000  O
  O94      1.0000 0.40361  0.59247  0.28803  Biso   1.000  O
  O95      1.0000 0.84296  0.86048  0.14273  Biso   1.000  O
  O96      1.0000 0.84296  0.86048  0.02073  Biso   1.000  O
  O97      1.0000 0.01430  0.15383  0.84939  Biso   1.000  O
  O98      1.0000 0.13631  0.03182  0.84939  Biso   1.000  O
  O99      1.0000 0.13631  0.86048  0.02073  Biso   1.000  O
  O100     1.0000 0.01430  0.86048  0.14273  Biso   1.000  O
  O101     1.0000 0.84296  0.15383  0.84939  Biso   1.000  O
  O102     1.0000 0.84296  0.03182  0.84939  Biso   1.000  O
  O103     1.0000 0.01430  0.86048  0.84939  Biso   1.000  O
  O104     1.0000 0.13631  0.86048  0.84939  Biso   1.000  O
  O105     1.0000 0.84296  0.15383  0.02073  Biso   1.000  O
