data_image0
_cell_length_a       18.2455
_cell_length_b       18.2455
_cell_length_c       18.2455
_cell_angle_alpha    60
_cell_angle_beta     60
_cell_angle_gamma    60

_symmetry_space_group_name_H-M    "P 1"
_symmetry_int_tables_number       1

loop_
  _symmetry_equiv_pos_as_xyz
  'x, y, z'

loop_
  _atom_site_label
  _atom_site_occupancy
  _atom_site_fract_x
  _atom_site_fract_y
  _atom_site_fract_z
  _atom_site_thermal_displace_type
  _atom_site_B_iso_or_equiv
  _atom_site_type_symbol
  C1       1.0000 0.29354  0.29354  0.11938  Biso   1.000  C
  C2       1.0000 0.29354  0.29354  0.29354  Biso   1.000  C
  C3       1.0000 0.11938  0.29354  0.29354  Biso   1.000  C
  C4       1.0000 0.29354  0.11938  0.29354  Biso   1.000  C
  C5       1.0000 0.70646  0.70646  0.88062  Biso   1.000  C
  C6       1.0000 0.70646  0.70646  0.70646  Biso   1.000  C
  C7       1.0000 0.70646  0.88062  0.70646  Biso   1.000  C
  C8       1.0000 0.88062  0.70646  0.70646  Biso   1.000  C
  C9       1.0000 0.45580  0.45580  0.93620  Biso   1.000  C
  C10      1.0000 0.45580  0.45580  0.15220  Biso   1.000  C
  C11      1.0000 0.93620  0.15220  0.45580  Biso   1.000  C
  C12      1.0000 0.15220  0.93620  0.45580  Biso   1.000  C
  C13      1.0000 0.45580  0.93620  0.15220  Biso   1.000  C
  C14      1.0000 0.45580  0.15220  0.93620  Biso   1.000  C
  C15      1.0000 0.93620  0.45580  0.45580  Biso   1.000  C
  C16      1.0000 0.15220  0.45580  0.45580  Biso   1.000  C
  C17      1.0000 0.45580  0.15220  0.45580  Biso   1.000  C
  C18      1.0000 0.45580  0.93620  0.45580  Biso   1.000  C
  C19      1.0000 0.93620  0.45580  0.15220  Biso   1.000  C
  C20      1.0000 0.15220  0.45580  0.93620  Biso   1.000  C
  C21      1.0000 0.54420  0.54420  0.06380  Biso   1.000  C
  C22      1.0000 0.54420  0.54420  0.84780  Biso   1.000  C
  C23      1.0000 0.84780  0.06380  0.54420  Biso   1.000  C
  C24      1.0000 0.06380  0.84780  0.54420  Biso   1.000  C
  C25      1.0000 0.06380  0.54420  0.84780  Biso   1.000  C
  C26      1.0000 0.84780  0.54420  0.06380  Biso   1.000  C
  C27      1.0000 0.54420  0.06380  0.54420  Biso   1.000  C
  C28      1.0000 0.54420  0.84780  0.54420  Biso   1.000  C
  C29      1.0000 0.84780  0.54420  0.54420  Biso   1.000  C
  C30      1.0000 0.06380  0.54420  0.54420  Biso   1.000  C
  C31      1.0000 0.54420  0.06380  0.84780  Biso   1.000  C
  C32      1.0000 0.54420  0.84780  0.06380  Biso   1.000  C
  C33      1.0000 0.47345  0.47345  0.96303  Biso   1.000  C
  C34      1.0000 0.47345  0.47345  0.09007  Biso   1.000  C
  C35      1.0000 0.96303  0.09007  0.47345  Biso   1.000  C
  C36      1.0000 0.09007  0.96303  0.47345  Biso   1.000  C
  C37      1.0000 0.47345  0.96303  0.09007  Biso   1.000  C
  C38      1.0000 0.47345  0.09007  0.96303  Biso   1.000  C
  C39      1.0000 0.96303  0.47345  0.47345  Biso   1.000  C
  C40      1.0000 0.09007  0.47345  0.47345  Biso   1.000  C
  C41      1.0000 0.47345  0.09007  0.47345  Biso   1.000  C
  C42      1.0000 0.47345  0.96303  0.47345  Biso   1.000  C
  C43      1.0000 0.96303  0.47345  0.09007  Biso   1.000  C
  C44      1.0000 0.09007  0.47345  0.96303  Biso   1.000  C
  C45      1.0000 0.52655  0.52655  0.03697  Biso   1.000  C
  C46      1.0000 0.52655  0.52655  0.90993  Biso   1.000  C
  C47      1.0000 0.90993  0.03697  0.52655  Biso   1.000  C
  C48      1.0000 0.03697  0.90993  0.52655  Biso   1.000  C
  C49      1.0000 0.03697  0.52655  0.90993  Biso   1.000  C
  C50      1.0000 0.90993  0.52655  0.03697  Biso   1.000  C
  C51      1.0000 0.52655  0.03697  0.52655  Biso   1.000  C
  C52      1.0000 0.52655  0.90993  0.52655  Biso   1.000  C
  C53      1.0000 0.90993  0.52655  0.52655  Biso   1.000  C
  C54      1.0000 0.03697  0.52655  0.52655  Biso   1.000  C
  C55      1.0000 0.52655  0.03697  0.90993  Biso   1.000  C
  C56      1.0000 0.52655  0.90993  0.03697  Biso   1.000  C
  C57      1.0000 0.38857  0.38857  0.11143  Biso   1.000  C
  C58      1.0000 0.44620  0.44620  0.05380  Biso   1.000  C
  C59      1.0000 0.11143  0.11143  0.38857  Biso   1.000  C
  C60      1.0000 0.05380  0.05380  0.44620  Biso   1.000  C
  C61      1.0000 0.38857  0.11143  0.11143  Biso   1.000  C
  C62      1.0000 0.44620  0.05380  0.05380  Biso   1.000  C
  C63      1.0000 0.11143  0.38857  0.38857  Biso   1.000  C
  C64      1.0000 0.05380  0.44620  0.44620  Biso   1.000  C
  C65      1.0000 0.38857  0.11143  0.38857  Biso   1.000  C
  C66      1.0000 0.44620  0.05380  0.44620  Biso   1.000  C
  C67      1.0000 0.11143  0.38857  0.11143  Biso   1.000  C
  C68      1.0000 0.05380  0.44620  0.05380  Biso   1.000  C
  C69      1.0000 0.61143  0.61143  0.88857  Biso   1.000  C
  C70      1.0000 0.55380  0.55380  0.94620  Biso   1.000  C
  C71      1.0000 0.88857  0.88857  0.61143  Biso   1.000  C
  C72      1.0000 0.94620  0.94620  0.55380  Biso   1.000  C
  C73      1.0000 0.88857  0.61143  0.88857  Biso   1.000  C
  C74      1.0000 0.94620  0.55380  0.94620  Biso   1.000  C
  C75      1.0000 0.61143  0.88857  0.61143  Biso   1.000  C
  C76      1.0000 0.55380  0.94620  0.55380  Biso   1.000  C
  C77      1.0000 0.88857  0.61143  0.61143  Biso   1.000  C
  C78      1.0000 0.94620  0.55380  0.55380  Biso   1.000  C
  C79      1.0000 0.61143  0.88857  0.88857  Biso   1.000  C
  C80      1.0000 0.55380  0.94620  0.94620  Biso   1.000  C
  C81      1.0000 0.25000  0.25000  0.25000  Biso   1.000  C
  C82      1.0000 0.75000  0.75000  0.75000  Biso   1.000  C
  C83      1.0000 0.36603  0.36603  0.07311  Biso   1.000  C
  C84      1.0000 0.36603  0.36603  0.19483  Biso   1.000  C
  C85      1.0000 0.07311  0.19483  0.36603  Biso   1.000  C
  C86      1.0000 0.19483  0.07311  0.36603  Biso   1.000  C
  C87      1.0000 0.36603  0.07311  0.19483  Biso   1.000  C
  C88      1.0000 0.36603  0.19483  0.07311  Biso   1.000  C
  C89      1.0000 0.07311  0.36603  0.36603  Biso   1.000  C
  C90      1.0000 0.19483  0.36603  0.36603  Biso   1.000  C
  C91      1.0000 0.36603  0.19483  0.36603  Biso   1.000  C
  C92      1.0000 0.36603  0.07311  0.36603  Biso   1.000  C
  C93      1.0000 0.07311  0.36603  0.19483  Biso   1.000  C
  C94      1.0000 0.19483  0.36603  0.07311  Biso   1.000  C
  C95      1.0000 0.63397  0.63397  0.92689  Biso   1.000  C
  C96      1.0000 0.63397  0.63397  0.80517  Biso   1.000  C
  C97      1.0000 0.80517  0.92689  0.63397  Biso   1.000  C
  C98      1.0000 0.92689  0.80517  0.63397  Biso   1.000  C
  C99      1.0000 0.92689  0.63397  0.80517  Biso   1.000  C
  C100     1.0000 0.80517  0.63397  0.92689  Biso   1.000  C
  C101     1.0000 0.63397  0.92689  0.63397  Biso   1.000  C
  C102     1.0000 0.63397  0.80517  0.63397  Biso   1.000  C
  C103     1.0000 0.80517  0.63397  0.63397  Biso   1.000  C
  C104     1.0000 0.92689  0.63397  0.63397  Biso   1.000  C
  C105     1.0000 0.63397  0.92689  0.80517  Biso   1.000  C
  C106     1.0000 0.63397  0.80517  0.92689  Biso   1.000  C
  O1       1.0000 0.00551  0.84127  0.13425  Biso   1.000  O
  O2       1.0000 0.83241  0.01437  0.13425  Biso   1.000  O
  O3       1.0000 0.00551  0.01437  0.13425  Biso   1.000  O
  O4       1.0000 0.00551  0.01437  0.96115  Biso   1.000  O
  O5       1.0000 0.59342  0.42656  0.54645  Biso   1.000  O
  O6       1.0000 0.41771  0.60227  0.54645  Biso   1.000  O
  O7       1.0000 0.41771  0.42656  0.72216  Biso   1.000  O
  O8       1.0000 0.41771  0.42656  0.54645  Biso   1.000  O
  O9       1.0000 0.77748  0.56886  0.38447  Biso   1.000  O
  O10      1.0000 0.56001  0.78634  0.38447  Biso   1.000  O
  O11      1.0000 0.25573  0.26458  0.90622  Biso   1.000  O
  O12      1.0000 0.25573  0.26458  0.68875  Biso   1.000  O
  O13      1.0000 0.77748  0.26458  0.38447  Biso   1.000  O
  O14      1.0000 0.56001  0.26458  0.38447  Biso   1.000  O
  O15      1.0000 0.25573  0.78634  0.68875  Biso   1.000  O
  O16      1.0000 0.25573  0.56886  0.90622  Biso   1.000  O
  O17      1.0000 0.77748  0.26458  0.68875  Biso   1.000  O
  O18      1.0000 0.56001  0.26458  0.90622  Biso   1.000  O
  O19      1.0000 0.25573  0.56886  0.38447  Biso   1.000  O
  O20      1.0000 0.25573  0.78634  0.38447  Biso   1.000  O
  O21      1.0000 0.79315  0.68428  0.31893  Biso   1.000  O
  O22      1.0000 0.75085  0.63081  0.36681  Biso   1.000  O
  O23      1.0000 0.67543  0.80200  0.31893  Biso   1.000  O
  O24      1.0000 0.62196  0.75970  0.36681  Biso   1.000  O
  O25      1.0000 0.19019  0.19904  0.92188  Biso   1.000  O
  O26      1.0000 0.23807  0.24693  0.87959  Biso   1.000  O
  O27      1.0000 0.19019  0.19904  0.80417  Biso   1.000  O
  O28      1.0000 0.23807  0.24693  0.75070  Biso   1.000  O
  O29      1.0000 0.79315  0.19904  0.31893  Biso   1.000  O
  O30      1.0000 0.75085  0.24693  0.36681  Biso   1.000  O
  O31      1.0000 0.67543  0.19904  0.31893  Biso   1.000  O
  O32      1.0000 0.62196  0.24693  0.36681  Biso   1.000  O
  O33      1.0000 0.19019  0.80200  0.80417  Biso   1.000  O
  O34      1.0000 0.23807  0.75970  0.75070  Biso   1.000  O
  O35      1.0000 0.19019  0.68428  0.92188  Biso   1.000  O
  O36      1.0000 0.23807  0.63081  0.87959  Biso   1.000  O
  O37      1.0000 0.79315  0.19904  0.80417  Biso   1.000  O
  O38      1.0000 0.75085  0.24693  0.75070  Biso   1.000  O
  O39      1.0000 0.67543  0.19904  0.92188  Biso   1.000  O
  O40      1.0000 0.62196  0.24693  0.87959  Biso   1.000  O
  O41      1.0000 0.19019  0.68428  0.31893  Biso   1.000  O
  O42      1.0000 0.23807  0.63081  0.36681  Biso   1.000  O
  O43      1.0000 0.19019  0.80200  0.31893  Biso   1.000  O
  O44      1.0000 0.23807  0.75970  0.36681  Biso   1.000  O
  O45      1.0000 0.76761  0.77646  0.28561  Biso   1.000  O
  O46      1.0000 0.66366  0.67251  0.38956  Biso   1.000  O
  O47      1.0000 0.60241  0.61126  0.45081  Biso   1.000  O
  O48      1.0000 0.82427  0.83313  0.22894  Biso   1.000  O
  O49      1.0000 0.15687  0.16572  0.89635  Biso   1.000  O
  O50      1.0000 0.26082  0.26967  0.79240  Biso   1.000  O
  O51      1.0000 0.32207  0.33092  0.73114  Biso   1.000  O
  O52      1.0000 0.10021  0.10906  0.95301  Biso   1.000  O
  O53      1.0000 0.76761  0.16572  0.28561  Biso   1.000  O
  O54      1.0000 0.66366  0.26967  0.38956  Biso   1.000  O
  O55      1.0000 0.60241  0.33092  0.45081  Biso   1.000  O
  O56      1.0000 0.82427  0.10906  0.22894  Biso   1.000  O
  O57      1.0000 0.15687  0.77646  0.89635  Biso   1.000  O
  O58      1.0000 0.26082  0.67251  0.79240  Biso   1.000  O
  O59      1.0000 0.32207  0.61126  0.73114  Biso   1.000  O
  O60      1.0000 0.10021  0.83313  0.95301  Biso   1.000  O
  O61      1.0000 0.76761  0.16572  0.89635  Biso   1.000  O
  O62      1.0000 0.66366  0.26967  0.79240  Biso   1.000  O
  O63      1.0000 0.60241  0.33092  0.73114  Biso   1.000  O
  O64      1.0000 0.82427  0.10906  0.95301  Biso   1.000  O
  O65      1.0000 0.15687  0.77646  0.28561  Biso   1.000  O
  O66      1.0000 0.26082  0.67251  0.38956  Biso   1.000  O
  O67      1.0000 0.32207  0.61126  0.45081  Biso   1.000  O
  O68      1.0000 0.10021  0.83313  0.22894  Biso   1.000  O
  O69      1.0000 0.64151  0.52387  0.47495  Biso   1.000  O
  O70      1.0000 0.90388  0.79621  0.20759  Biso   1.000  O
  O71      1.0000 0.51502  0.65037  0.47495  Biso   1.000  O
  O72      1.0000 0.78736  0.91273  0.20759  Biso   1.000  O
  O73      1.0000 0.34621  0.35507  0.77025  Biso   1.000  O
  O74      1.0000 0.07886  0.08771  0.03262  Biso   1.000  O
  O75      1.0000 0.34621  0.35507  0.64375  Biso   1.000  O
  O76      1.0000 0.07886  0.08771  0.91610  Biso   1.000  O
  O77      1.0000 0.64151  0.35507  0.47495  Biso   1.000  O
  O78      1.0000 0.90388  0.08771  0.20759  Biso   1.000  O
  O79      1.0000 0.51502  0.35507  0.47495  Biso   1.000  O
  O80      1.0000 0.78736  0.08771  0.20759  Biso   1.000  O
  O81      1.0000 0.34621  0.65037  0.64375  Biso   1.000  O
  O82      1.0000 0.07886  0.91273  0.91610  Biso   1.000  O
  O83      1.0000 0.34621  0.52387  0.77025  Biso   1.000  O
  O84      1.0000 0.07886  0.79621  0.03262  Biso   1.000  O
  O85      1.0000 0.64151  0.35507  0.64375  Biso   1.000  O
  O86      1.0000 0.90388  0.08771  0.91610  Biso   1.000  O
  O87      1.0000 0.51502  0.35507  0.77025  Biso   1.000  O
  O88      1.0000 0.78736  0.08771  0.03262  Biso   1.000  O
  O89      1.0000 0.34621  0.52387  0.47495  Biso   1.000  O
  O90      1.0000 0.07886  0.79621  0.20759  Biso   1.000  O
  O91      1.0000 0.34621  0.65037  0.47495  Biso   1.000  O
  O92      1.0000 0.07886  0.91273  0.20759  Biso   1.000  O
  O93      1.0000 0.46344  0.47230  0.59218  Biso   1.000  O
