data_image0
_cell_length_a       18.2965
_cell_length_b       18.2965
_cell_length_c       18.2965
_cell_angle_alpha    60
_cell_angle_beta     60
_cell_angle_gamma    60

_symmetry_space_group_name_H-M    "P 1"
_symmetry_int_tables_number       1

loop_
  _symmetry_equiv_pos_as_xyz
  'x, y, z'

loop_
  _atom_site_label
  _atom_site_occupancy
  _atom_site_fract_x
  _atom_site_fract_y
  _atom_site_fract_z
  _atom_site_thermal_displace_type
  _atom_site_B_iso_or_equiv
  _atom_site_type_symbol
  C1       1.0000 0.29344  0.29343  0.11970  Biso   1.000  C
  C2       1.0000 0.29344  0.29343  0.29343  Biso   1.000  C
  C3       1.0000 0.11971  0.29343  0.29343  Biso   1.000  C
  C4       1.0000 0.29344  0.11970  0.29343  Biso   1.000  C
  C5       1.0000 0.70656  0.70657  0.88030  Biso   1.000  C
  C6       1.0000 0.70656  0.70657  0.70657  Biso   1.000  C
  C7       1.0000 0.70656  0.88030  0.70657  Biso   1.000  C
  C8       1.0000 0.88029  0.70657  0.70657  Biso   1.000  C
  C9       1.0000 0.45520  0.45520  0.93480  Biso   1.000  C
  C10      1.0000 0.45520  0.45520  0.15480  Biso   1.000  C
  C11      1.0000 0.93480  0.15480  0.45520  Biso   1.000  C
  C12      1.0000 0.15480  0.93480  0.45520  Biso   1.000  C
  C13      1.0000 0.45520  0.93480  0.15480  Biso   1.000  C
  C14      1.0000 0.45520  0.15480  0.93480  Biso   1.000  C
  C15      1.0000 0.93480  0.45520  0.45520  Biso   1.000  C
  C16      1.0000 0.15480  0.45520  0.45520  Biso   1.000  C
  C17      1.0000 0.45520  0.15480  0.45520  Biso   1.000  C
  C18      1.0000 0.45520  0.93480  0.45520  Biso   1.000  C
  C19      1.0000 0.93480  0.45520  0.15480  Biso   1.000  C
  C20      1.0000 0.15480  0.45520  0.93480  Biso   1.000  C
  C21      1.0000 0.54480  0.54480  0.06520  Biso   1.000  C
  C22      1.0000 0.54480  0.54480  0.84520  Biso   1.000  C
  C23      1.0000 0.84520  0.06520  0.54480  Biso   1.000  C
  C24      1.0000 0.06520  0.84520  0.54480  Biso   1.000  C
  C25      1.0000 0.06520  0.54480  0.84520  Biso   1.000  C
  C26      1.0000 0.84520  0.54480  0.06520  Biso   1.000  C
  C27      1.0000 0.54480  0.06520  0.54480  Biso   1.000  C
  C28      1.0000 0.54480  0.84520  0.54480  Biso   1.000  C
  C29      1.0000 0.84520  0.54480  0.54480  Biso   1.000  C
  C30      1.0000 0.06520  0.54480  0.54480  Biso   1.000  C
  C31      1.0000 0.54480  0.06520  0.84520  Biso   1.000  C
  C32      1.0000 0.54480  0.84520  0.06520  Biso   1.000  C
  C33      1.0000 0.47339  0.47339  0.96175  Biso   1.000  C
  C34      1.0000 0.47339  0.47339  0.09147  Biso   1.000  C
  C35      1.0000 0.96175  0.09147  0.47339  Biso   1.000  C
  C36      1.0000 0.09147  0.96175  0.47339  Biso   1.000  C
  C37      1.0000 0.47339  0.96175  0.09147  Biso   1.000  C
  C38      1.0000 0.47339  0.09147  0.96175  Biso   1.000  C
  C39      1.0000 0.96175  0.47339  0.47339  Biso   1.000  C
  C40      1.0000 0.09147  0.47339  0.47339  Biso   1.000  C
  C41      1.0000 0.47339  0.09147  0.47339  Biso   1.000  C
  C42      1.0000 0.47339  0.96175  0.47339  Biso   1.000  C
  C43      1.0000 0.96175  0.47339  0.09147  Biso   1.000  C
  C44      1.0000 0.09147  0.47339  0.96175  Biso   1.000  C
  C45      1.0000 0.52661  0.52661  0.03825  Biso   1.000  C
  C46      1.0000 0.52661  0.52661  0.90853  Biso   1.000  C
  C47      1.0000 0.90853  0.03825  0.52661  Biso   1.000  C
  C48      1.0000 0.03825  0.90853  0.52661  Biso   1.000  C
  C49      1.0000 0.03825  0.52661  0.90853  Biso   1.000  C
  C50      1.0000 0.90853  0.52661  0.03825  Biso   1.000  C
  C51      1.0000 0.52661  0.03825  0.52661  Biso   1.000  C
  C52      1.0000 0.52661  0.90853  0.52661  Biso   1.000  C
  C53      1.0000 0.90853  0.52661  0.52661  Biso   1.000  C
  C54      1.0000 0.03825  0.52661  0.52661  Biso   1.000  C
  C55      1.0000 0.52661  0.03825  0.90853  Biso   1.000  C
  C56      1.0000 0.52661  0.90853  0.03825  Biso   1.000  C
  C57      1.0000 0.38840  0.38840  0.11160  Biso   1.000  C
  C58      1.0000 0.44637  0.44637  0.05363  Biso   1.000  C
  C59      1.0000 0.11160  0.11160  0.38840  Biso   1.000  C
  C60      1.0000 0.05363  0.05363  0.44637  Biso   1.000  C
  C61      1.0000 0.38840  0.11160  0.11160  Biso   1.000  C
  C62      1.0000 0.44637  0.05363  0.05363  Biso   1.000  C
  C63      1.0000 0.11160  0.38840  0.38840  Biso   1.000  C
  C64      1.0000 0.05363  0.44637  0.44637  Biso   1.000  C
  C65      1.0000 0.38840  0.11160  0.38840  Biso   1.000  C
  C66      1.0000 0.44637  0.05363  0.44637  Biso   1.000  C
  C67      1.0000 0.11160  0.38840  0.11160  Biso   1.000  C
  C68      1.0000 0.05363  0.44637  0.05363  Biso   1.000  C
  C69      1.0000 0.61160  0.61160  0.88840  Biso   1.000  C
  C70      1.0000 0.55363  0.55363  0.94637  Biso   1.000  C
  C71      1.0000 0.88840  0.88840  0.61160  Biso   1.000  C
  C72      1.0000 0.94637  0.94637  0.55363  Biso   1.000  C
  C73      1.0000 0.88840  0.61160  0.88840  Biso   1.000  C
  C74      1.0000 0.94637  0.55363  0.94637  Biso   1.000  C
  C75      1.0000 0.61160  0.88840  0.61160  Biso   1.000  C
  C76      1.0000 0.55363  0.94637  0.55363  Biso   1.000  C
  C77      1.0000 0.88840  0.61160  0.61160  Biso   1.000  C
  C78      1.0000 0.94637  0.55363  0.55363  Biso   1.000  C
  C79      1.0000 0.61160  0.88840  0.88840  Biso   1.000  C
  C80      1.0000 0.55363  0.94637  0.94637  Biso   1.000  C
  C81      1.0000 0.25000  0.25000  0.25000  Biso   1.000  C
  C82      1.0000 0.75000  0.75000  0.75000  Biso   1.000  C
  C83      1.0000 0.36613  0.36613  0.07281  Biso   1.000  C
  C84      1.0000 0.36613  0.36613  0.19493  Biso   1.000  C
  C85      1.0000 0.07281  0.19493  0.36613  Biso   1.000  C
  C86      1.0000 0.19493  0.07281  0.36613  Biso   1.000  C
  C87      1.0000 0.36613  0.07281  0.19493  Biso   1.000  C
  C88      1.0000 0.36613  0.19493  0.07281  Biso   1.000  C
  C89      1.0000 0.07281  0.36613  0.36613  Biso   1.000  C
  C90      1.0000 0.19493  0.36613  0.36613  Biso   1.000  C
  C91      1.0000 0.36613  0.19493  0.36613  Biso   1.000  C
  C92      1.0000 0.36613  0.07281  0.36613  Biso   1.000  C
  C93      1.0000 0.07281  0.36613  0.19493  Biso   1.000  C
  C94      1.0000 0.19493  0.36613  0.07281  Biso   1.000  C
  C95      1.0000 0.63387  0.63387  0.92719  Biso   1.000  C
  C96      1.0000 0.63387  0.63387  0.80507  Biso   1.000  C
  C97      1.0000 0.80507  0.92719  0.63387  Biso   1.000  C
  C98      1.0000 0.92719  0.80507  0.63387  Biso   1.000  C
  C99      1.0000 0.92719  0.63387  0.80507  Biso   1.000  C
  C100     1.0000 0.80507  0.63387  0.92719  Biso   1.000  C
  C101     1.0000 0.63387  0.92719  0.63387  Biso   1.000  C
  C102     1.0000 0.63387  0.80507  0.63387  Biso   1.000  C
  C103     1.0000 0.80507  0.63387  0.63387  Biso   1.000  C
  C104     1.0000 0.92719  0.63387  0.63387  Biso   1.000  C
  C105     1.0000 0.63387  0.92719  0.80507  Biso   1.000  C
  C106     1.0000 0.63387  0.80507  0.92719  Biso   1.000  C
  O1       1.0000 0.09950  0.06628  0.93714  Biso   1.000  O
  O2       1.0000 0.92544  0.06628  0.11120  Biso   1.000  O
  O3       1.0000 0.92544  0.24034  0.93714  Biso   1.000  O
  O4       1.0000 0.92544  0.06628  0.93714  Biso   1.000  O
  O5       1.0000 0.33898  0.65313  0.52399  Biso   1.000  O
  O6       1.0000 0.51304  0.65313  0.34993  Biso   1.000  O
  O7       1.0000 0.51304  0.65313  0.52399  Biso   1.000  O
  O8       1.0000 0.51304  0.47907  0.52399  Biso   1.000  O
  O9       1.0000 0.28478  0.90502  0.07439  Biso   1.000  O
  O10      1.0000 0.06307  0.90502  0.29610  Biso   1.000  O
  O11      1.0000 0.76456  0.42524  0.77588  Biso   1.000  O
  O12      1.0000 0.76456  0.20353  0.77588  Biso   1.000  O
  O13      1.0000 0.76456  0.20353  0.29610  Biso   1.000  O
  O14      1.0000 0.76456  0.42524  0.07439  Biso   1.000  O
  O15      1.0000 0.28478  0.90502  0.77588  Biso   1.000  O
  O16      1.0000 0.06307  0.90502  0.77588  Biso   1.000  O
  O17      1.0000 0.06307  0.42524  0.77588  Biso   1.000  O
  O18      1.0000 0.28478  0.20353  0.77588  Biso   1.000  O
  O19      1.0000 0.76456  0.90502  0.29610  Biso   1.000  O
  O20      1.0000 0.76456  0.90502  0.07439  Biso   1.000  O
  O21      1.0000 0.15370  0.81439  0.38673  Biso   1.000  O
  O22      1.0000 0.37541  0.81439  0.16503  Biso   1.000  O
  O23      1.0000 0.67392  0.51587  0.68525  Biso   1.000  O
  O24      1.0000 0.67392  0.29417  0.68525  Biso   1.000  O
  O25      1.0000 0.67392  0.81439  0.16503  Biso   1.000  O
  O26      1.0000 0.67392  0.81439  0.38673  Biso   1.000  O
  O27      1.0000 0.15370  0.51587  0.68525  Biso   1.000  O
  O28      1.0000 0.37541  0.29417  0.68525  Biso   1.000  O
  O29      1.0000 0.37541  0.81439  0.68525  Biso   1.000  O
  O30      1.0000 0.15370  0.81439  0.68525  Biso   1.000  O
  O31      1.0000 0.67392  0.51587  0.16503  Biso   1.000  O
  O32      1.0000 0.67392  0.29417  0.38673  Biso   1.000  O
  O33      1.0000 0.25760  0.88616  0.13929  Biso   1.000  O
  O34      1.0000 0.12796  0.88616  0.26892  Biso   1.000  O
  O35      1.0000 0.74570  0.39806  0.75702  Biso   1.000  O
  O36      1.0000 0.74570  0.26843  0.75702  Biso   1.000  O
  O37      1.0000 0.74570  0.26843  0.26892  Biso   1.000  O
  O38      1.0000 0.74570  0.39806  0.13929  Biso   1.000  O
  O39      1.0000 0.25760  0.88616  0.75702  Biso   1.000  O
  O40      1.0000 0.12796  0.88616  0.75702  Biso   1.000  O
  O41      1.0000 0.12796  0.39806  0.75702  Biso   1.000  O
  O42      1.0000 0.25760  0.26843  0.75702  Biso   1.000  O
  O43      1.0000 0.74570  0.88616  0.26892  Biso   1.000  O
  O44      1.0000 0.74570  0.88616  0.13929  Biso   1.000  O
  O45      1.0000 0.18088  0.83324  0.32184  Biso   1.000  O
  O46      1.0000 0.31052  0.83324  0.19221  Biso   1.000  O
  O47      1.0000 0.69278  0.45098  0.70410  Biso   1.000  O
  O48      1.0000 0.69278  0.32135  0.70410  Biso   1.000  O
  O49      1.0000 0.69278  0.83324  0.19221  Biso   1.000  O
  O50      1.0000 0.69278  0.83324  0.32184  Biso   1.000  O
  O51      1.0000 0.18088  0.45098  0.70410  Biso   1.000  O
  O52      1.0000 0.31052  0.32135  0.70410  Biso   1.000  O
  O53      1.0000 0.31052  0.83324  0.70410  Biso   1.000  O
  O54      1.0000 0.18088  0.83324  0.70410  Biso   1.000  O
  O55      1.0000 0.69278  0.45098  0.19221  Biso   1.000  O
  O56      1.0000 0.69278  0.32135  0.32184  Biso   1.000  O
  O57      1.0000 0.10731  0.97145  0.11901  Biso   1.000  O
  O58      1.0000 0.16526  0.91349  0.17696  Biso   1.000  O
  O59      1.0000 0.83060  0.24815  0.84231  Biso   1.000  O
  O60      1.0000 0.77265  0.30610  0.78435  Biso   1.000  O
  O61      1.0000 0.83060  0.24815  0.11901  Biso   1.000  O
  O62      1.0000 0.77265  0.30610  0.17696  Biso   1.000  O
  O63      1.0000 0.10731  0.97145  0.84231  Biso   1.000  O
  O64      1.0000 0.16526  0.91349  0.78435  Biso   1.000  O
  O65      1.0000 0.10731  0.24815  0.84231  Biso   1.000  O
  O66      1.0000 0.16526  0.30610  0.78435  Biso   1.000  O
  O67      1.0000 0.83060  0.97145  0.11901  Biso   1.000  O
  O68      1.0000 0.77265  0.91349  0.17696  Biso   1.000  O
  O69      1.0000 0.33117  0.74796  0.34212  Biso   1.000  O
  O70      1.0000 0.27322  0.80591  0.28417  Biso   1.000  O
  O71      1.0000 0.60787  0.47126  0.61882  Biso   1.000  O
  O72      1.0000 0.66583  0.41331  0.67677  Biso   1.000  O
  O73      1.0000 0.60787  0.74796  0.34212  Biso   1.000  O
  O74      1.0000 0.66583  0.80591  0.28417  Biso   1.000  O
  O75      1.0000 0.33117  0.47126  0.61882  Biso   1.000  O
  O76      1.0000 0.27322  0.41331  0.67677  Biso   1.000  O
  O77      1.0000 0.33117  0.74796  0.61882  Biso   1.000  O
  O78      1.0000 0.27322  0.80591  0.67677  Biso   1.000  O
  O79      1.0000 0.60787  0.47126  0.34212  Biso   1.000  O
  O80      1.0000 0.66583  0.41331  0.28417  Biso   1.000  O
  O81      1.0000 0.14655  0.99362  0.03541  Biso   1.000  O
  O82      1.0000 0.02371  0.99362  0.15826  Biso   1.000  O
  O83      1.0000 0.85278  0.28740  0.86449  Biso   1.000  O
  O84      1.0000 0.85278  0.16455  0.86449  Biso   1.000  O
  O85      1.0000 0.85278  0.16455  0.15826  Biso   1.000  O
  O86      1.0000 0.85278  0.28740  0.03541  Biso   1.000  O
  O87      1.0000 0.14655  0.99362  0.86449  Biso   1.000  O
  O88      1.0000 0.02371  0.99362  0.86449  Biso   1.000  O
  O89      1.0000 0.02371  0.28740  0.86449  Biso   1.000  O
  O90      1.0000 0.14655  0.16455  0.86449  Biso   1.000  O
  O91      1.0000 0.85278  0.99362  0.15826  Biso   1.000  O
  O92      1.0000 0.85278  0.99362  0.03541  Biso   1.000  O
  O93      1.0000 0.29193  0.72578  0.42572  Biso   1.000  O
  O94      1.0000 0.41477  0.72578  0.30287  Biso   1.000  O
  O95      1.0000 0.58570  0.55486  0.59664  Biso   1.000  O
  O96      1.0000 0.58570  0.43201  0.59664  Biso   1.000  O
  O97      1.0000 0.58570  0.72578  0.30287  Biso   1.000  O
  O98      1.0000 0.58570  0.72578  0.42572  Biso   1.000  O
  O99      1.0000 0.29193  0.55486  0.59664  Biso   1.000  O
  O100     1.0000 0.41477  0.43201  0.59664  Biso   1.000  O
  O101     1.0000 0.41477  0.72578  0.59664  Biso   1.000  O
  O102     1.0000 0.29193  0.72578  0.59664  Biso   1.000  O
  O103     1.0000 0.58570  0.55486  0.30287  Biso   1.000  O
  O104     1.0000 0.58570  0.43201  0.42572  Biso   1.000  O
  O105     1.0000 0.96896  0.10980  0.98066  Biso   1.000  O
