data_image0
_cell_length_a       18.2888
_cell_length_b       18.2888
_cell_length_c       18.2888
_cell_angle_alpha    60
_cell_angle_beta     60
_cell_angle_gamma    60

_symmetry_space_group_name_H-M    "P 1"
_symmetry_int_tables_number       1

loop_
  _symmetry_equiv_pos_as_xyz
  'x, y, z'

loop_
  _atom_site_label
  _atom_site_occupancy
  _atom_site_fract_x
  _atom_site_fract_y
  _atom_site_fract_z
  _atom_site_thermal_displace_type
  _atom_site_B_iso_or_equiv
  _atom_site_type_symbol
  Zn1      1.0000 0.29344  0.29345  0.11966  Biso   1.000  Zn
  Zn2      1.0000 0.29344  0.29345  0.29345  Biso   1.000  Zn
  Zn3      1.0000 0.11965  0.29345  0.29345  Biso   1.000  Zn
  Zn4      1.0000 0.29344  0.11966  0.29345  Biso   1.000  Zn
  Zn5      1.0000 0.70655  0.70656  0.88034  Biso   1.000  Zn
  Zn6      1.0000 0.70656  0.70655  0.70655  Biso   1.000  Zn
  Zn7      1.0000 0.70655  0.88034  0.70656  Biso   1.000  Zn
  Zn8      1.0000 0.88035  0.70655  0.70655  Biso   1.000  Zn
  H1       1.0000 0.45490  0.45490  0.93490  Biso   1.000  H
  H2       1.0000 0.45490  0.45490  0.15530  Biso   1.000  H
  H3       1.0000 0.93490  0.15530  0.45490  Biso   1.000  H
  H4       1.0000 0.15530  0.93490  0.45490  Biso   1.000  H
  H5       1.0000 0.45490  0.93490  0.15530  Biso   1.000  H
  H6       1.0000 0.45490  0.15530  0.93490  Biso   1.000  H
  H7       1.0000 0.93490  0.45490  0.45490  Biso   1.000  H
  H8       1.0000 0.15530  0.45490  0.45490  Biso   1.000  H
  H9       1.0000 0.45490  0.15530  0.45490  Biso   1.000  H
  H10      1.0000 0.45490  0.93490  0.45490  Biso   1.000  H
  H11      1.0000 0.93490  0.45490  0.15530  Biso   1.000  H
  H12      1.0000 0.15530  0.45490  0.93490  Biso   1.000  H
  H13      1.0000 0.54510  0.54510  0.06510  Biso   1.000  H
  H14      1.0000 0.54510  0.54510  0.84470  Biso   1.000  H
  H15      1.0000 0.84470  0.06510  0.54510  Biso   1.000  H
  H16      1.0000 0.06510  0.84470  0.54510  Biso   1.000  H
  H17      1.0000 0.06510  0.54510  0.84470  Biso   1.000  H
  H18      1.0000 0.84470  0.54510  0.06510  Biso   1.000  H
  H19      1.0000 0.54510  0.06510  0.54510  Biso   1.000  H
  H20      1.0000 0.54510  0.84470  0.54510  Biso   1.000  H
  H21      1.0000 0.84470  0.54510  0.54510  Biso   1.000  H
  H22      1.0000 0.06510  0.54510  0.54510  Biso   1.000  H
  H23      1.0000 0.54510  0.06510  0.84470  Biso   1.000  H
  H24      1.0000 0.54510  0.84470  0.06510  Biso   1.000  H
  C1       1.0000 0.47314  0.47314  0.96174  Biso   1.000  C
  C2       1.0000 0.47314  0.47314  0.09198  Biso   1.000  C
  C3       1.0000 0.96174  0.09198  0.47314  Biso   1.000  C
  C4       1.0000 0.09198  0.96174  0.47314  Biso   1.000  C
  C5       1.0000 0.47314  0.96174  0.09198  Biso   1.000  C
  C6       1.0000 0.47314  0.09198  0.96174  Biso   1.000  C
  C7       1.0000 0.96174  0.47314  0.47314  Biso   1.000  C
  C8       1.0000 0.09198  0.47314  0.47314  Biso   1.000  C
  C9       1.0000 0.47314  0.09198  0.47314  Biso   1.000  C
  C10      1.0000 0.47314  0.96174  0.47314  Biso   1.000  C
  C11      1.0000 0.96174  0.47314  0.09198  Biso   1.000  C
  C12      1.0000 0.09198  0.47314  0.96174  Biso   1.000  C
  C13      1.0000 0.52686  0.52686  0.03826  Biso   1.000  C
  C14      1.0000 0.52686  0.52686  0.90802  Biso   1.000  C
  C15      1.0000 0.90802  0.03826  0.52686  Biso   1.000  C
  C16      1.0000 0.03826  0.90802  0.52686  Biso   1.000  C
  C17      1.0000 0.03826  0.52686  0.90802  Biso   1.000  C
  C18      1.0000 0.90802  0.52686  0.03826  Biso   1.000  C
  C19      1.0000 0.52686  0.03826  0.52686  Biso   1.000  C
  C20      1.0000 0.52686  0.90802  0.52686  Biso   1.000  C
  C21      1.0000 0.90802  0.52686  0.52686  Biso   1.000  C
  C22      1.0000 0.03826  0.52686  0.52686  Biso   1.000  C
  C23      1.0000 0.52686  0.03826  0.90802  Biso   1.000  C
  C24      1.0000 0.52686  0.90802  0.03826  Biso   1.000  C
  C25      1.0000 0.38849  0.38849  0.11151  Biso   1.000  C
  C26      1.0000 0.44624  0.44624  0.05376  Biso   1.000  C
  C27      1.0000 0.11151  0.11151  0.38849  Biso   1.000  C
  C28      1.0000 0.05376  0.05376  0.44624  Biso   1.000  C
  C29      1.0000 0.38849  0.11151  0.11151  Biso   1.000  C
  C30      1.0000 0.44624  0.05376  0.05376  Biso   1.000  C
  C31      1.0000 0.11151  0.38849  0.38849  Biso   1.000  C
  C32      1.0000 0.05376  0.44624  0.44624  Biso   1.000  C
  C33      1.0000 0.38849  0.11151  0.38849  Biso   1.000  C
  C34      1.0000 0.44624  0.05376  0.44624  Biso   1.000  C
  C35      1.0000 0.11151  0.38849  0.11151  Biso   1.000  C
  C36      1.0000 0.05376  0.44624  0.05376  Biso   1.000  C
  C37      1.0000 0.61151  0.61151  0.88849  Biso   1.000  C
  C38      1.0000 0.55376  0.55376  0.94624  Biso   1.000  C
  C39      1.0000 0.88849  0.88849  0.61151  Biso   1.000  C
  C40      1.0000 0.94624  0.94624  0.55376  Biso   1.000  C
  C41      1.0000 0.88849  0.61151  0.88849  Biso   1.000  C
  C42      1.0000 0.94624  0.55376  0.94624  Biso   1.000  C
  C43      1.0000 0.61151  0.88849  0.61151  Biso   1.000  C
  C44      1.0000 0.55376  0.94624  0.55376  Biso   1.000  C
  C45      1.0000 0.88849  0.61151  0.61151  Biso   1.000  C
  C46      1.0000 0.94624  0.55376  0.55376  Biso   1.000  C
  C47      1.0000 0.61151  0.88849  0.88849  Biso   1.000  C
  C48      1.0000 0.55376  0.94624  0.94624  Biso   1.000  C
  O1       1.0000 0.25000  0.25000  0.25000  Biso   1.000  O
  O2       1.0000 0.75000  0.75000  0.75000  Biso   1.000  O
  O3       1.0000 0.36620  0.36620  0.07286  Biso   1.000  O
  O4       1.0000 0.36620  0.36620  0.19474  Biso   1.000  O
  O5       1.0000 0.07286  0.19474  0.36620  Biso   1.000  O
  O6       1.0000 0.19474  0.07286  0.36620  Biso   1.000  O
  O7       1.0000 0.36620  0.07286  0.19474  Biso   1.000  O
  O8       1.0000 0.36620  0.19474  0.07286  Biso   1.000  O
  O9       1.0000 0.07286  0.36620  0.36620  Biso   1.000  O
  O10      1.0000 0.19474  0.36620  0.36620  Biso   1.000  O
  O11      1.0000 0.36620  0.19474  0.36620  Biso   1.000  O
  O12      1.0000 0.36620  0.07286  0.36620  Biso   1.000  O
  O13      1.0000 0.07286  0.36620  0.19474  Biso   1.000  O
  O14      1.0000 0.19474  0.36620  0.07286  Biso   1.000  O
  O15      1.0000 0.63380  0.63380  0.92714  Biso   1.000  O
  O16      1.0000 0.63380  0.63380  0.80526  Biso   1.000  O
  O17      1.0000 0.80526  0.92714  0.63380  Biso   1.000  O
  O18      1.0000 0.92714  0.80526  0.63380  Biso   1.000  O
  O19      1.0000 0.92714  0.63380  0.80526  Biso   1.000  O
  O20      1.0000 0.80526  0.63380  0.92714  Biso   1.000  O
  O21      1.0000 0.63380  0.92714  0.63380  Biso   1.000  O
  O22      1.0000 0.63380  0.80526  0.63380  Biso   1.000  O
  O23      1.0000 0.80526  0.63380  0.63380  Biso   1.000  O
  O24      1.0000 0.92714  0.63380  0.63380  Biso   1.000  O
  O25      1.0000 0.63380  0.92714  0.80526  Biso   1.000  O
  O26      1.0000 0.63380  0.80526  0.92714  Biso   1.000  O
  Zn9      1.0000 0.99218  0.97255  0.87057  Biso   1.000  Zn
  Zn10     1.0000 0.99223  0.14453  0.87052  Biso   1.000  Zn
  Zn11     1.0000 0.16420  0.97255  0.87057  Biso   1.000  Zn
  Zn12     1.0000 0.99223  0.97250  0.04254  Biso   1.000  Zn
  Zn13     1.0000 0.57445  0.56230  0.46033  Biso   1.000  Zn
  Zn14     1.0000 0.57441  0.39033  0.46038  Biso   1.000  Zn
  Zn15     1.0000 0.40243  0.56230  0.46033  Biso   1.000  Zn
  Zn16     1.0000 0.57440  0.56235  0.28836  Biso   1.000  Zn
  C49      1.0000 0.81312  0.17193  0.69245  Biso   1.000  C
  C50      1.0000 0.19182  0.79422  0.69046  Biso   1.000  C
  C51      1.0000 0.81252  0.79522  0.06995  Biso   1.000  C
  C52      1.0000 0.81413  0.30991  0.69146  Biso   1.000  C
  C53      1.0000 0.81213  0.31092  0.07015  Biso   1.000  C
  C54      1.0000 0.19163  0.30972  0.69086  Biso   1.000  C
  C55      1.0000 0.32201  0.79443  0.06994  Biso   1.000  C
  C56      1.0000 0.32301  0.79244  0.69225  Biso   1.000  C
  C57      1.0000 0.32181  0.17194  0.69324  Biso   1.000  C
  C58      1.0000 0.18401  0.79343  0.20794  Biso   1.000  C
  C59      1.0000 0.80631  0.17213  0.20895  Biso   1.000  C
  C60      1.0000 0.80731  0.79283  0.20775  Biso   1.000  C
  C61      1.0000 0.75352  0.36293  0.63845  Biso   1.000  C
  C62      1.0000 0.37482  0.74063  0.64044  Biso   1.000  C
  C63      1.0000 0.75411  0.73964  0.26095  Biso   1.000  C
  C64      1.0000 0.75251  0.22494  0.63944  Biso   1.000  C
  C65      1.0000 0.75450  0.22393  0.26075  Biso   1.000  C
  C66      1.0000 0.37500  0.22513  0.64005  Biso   1.000  C
  C67      1.0000 0.24462  0.74042  0.26096  Biso   1.000  C
  C68      1.0000 0.24362  0.74242  0.63866  Biso   1.000  C
  C69      1.0000 0.24482  0.36292  0.63766  Biso   1.000  C
  C70      1.0000 0.38262  0.74142  0.12296  Biso   1.000  C
  C71      1.0000 0.76033  0.36272  0.12196  Biso   1.000  C
  C72      1.0000 0.75933  0.74202  0.12315  Biso   1.000  C
  C73      1.0000 0.84050  0.21024  0.71884  Biso   1.000  C
  C74      1.0000 0.89873  0.15201  0.77708  Biso   1.000  C
  C75      1.0000 0.22992  0.82082  0.10826  Biso   1.000  C
  C76      1.0000 0.17169  0.87906  0.05003  Biso   1.000  C
  C77      1.0000 0.72614  0.32461  0.61206  Biso   1.000  C
  C78      1.0000 0.66790  0.38284  0.55383  Biso   1.000  C
  C79      1.0000 0.33671  0.71403  0.22264  Biso   1.000  C
  C80      1.0000 0.39494  0.65580  0.28087  Biso   1.000  C
  C81      1.0000 0.84030  0.82062  0.10846  Biso   1.000  C
  C82      1.0000 0.89826  0.87858  0.05050  Biso   1.000  C
  C83      1.0000 0.23011  0.21044  0.71864  Biso   1.000  C
  C84      1.0000 0.17216  0.15248  0.77660  Biso   1.000  C
  C85      1.0000 0.72633  0.71423  0.22244  Biso   1.000  C
  C86      1.0000 0.66837  0.65627  0.28040  Biso   1.000  C
  C87      1.0000 0.33652  0.32441  0.61226  Biso   1.000  C
  C88      1.0000 0.39447  0.38237  0.55430  Biso   1.000  C
  C89      1.0000 0.23032  0.82042  0.71844  Biso   1.000  C
  C90      1.0000 0.17236  0.87838  0.77640  Biso   1.000  C
  C91      1.0000 0.84010  0.21064  0.10866  Biso   1.000  C
  C92      1.0000 0.89806  0.15269  0.05070  Biso   1.000  C
  C93      1.0000 0.33631  0.71443  0.61246  Biso   1.000  C
  C94      1.0000 0.39427  0.65647  0.55450  Biso   1.000  C
  C95      1.0000 0.72653  0.32421  0.22224  Biso   1.000  C
  C96      1.0000 0.66858  0.38217  0.28020  Biso   1.000  C
  O27      1.0000 0.92116  0.06841  0.79792  Biso   1.000  O
  O28      1.0000 0.91924  0.90148  0.96726  Biso   1.000  O
  O29      1.0000 0.08767  0.90113  0.79833  Biso   1.000  O
  O30      1.0000 0.91957  0.19234  0.79950  Biso   1.000  O
  O31      1.0000 0.08891  0.19184  0.79758  Biso   1.000  O
  O32      1.0000 0.91999  0.19270  0.96601  Biso   1.000  O
  O33      1.0000 0.21202  0.89990  0.96643  Biso   1.000  O
  O34      1.0000 0.21152  0.06924  0.79950  Biso   1.000  O
  O35      1.0000 0.21238  0.90031  0.79915  Biso   1.000  O
  O36      1.0000 0.08809  0.90149  0.09036  Biso   1.000  O
  O37      1.0000 0.92116  0.89956  0.08986  Biso   1.000  O
  O38      1.0000 0.92080  0.06799  0.09071  Biso   1.000  O
  O39      1.0000 0.64547  0.46645  0.53298  Biso   1.000  O
  O40      1.0000 0.64739  0.63337  0.36364  Biso   1.000  O
  O41      1.0000 0.47896  0.63373  0.53257  Biso   1.000  O
  O42      1.0000 0.64706  0.34251  0.53140  Biso   1.000  O
  O43      1.0000 0.47772  0.34301  0.53332  Biso   1.000  O
  O44      1.0000 0.64664  0.34215  0.36489  Biso   1.000  O
  O45      1.0000 0.35461  0.63496  0.36447  Biso   1.000  O
  O46      1.0000 0.35511  0.46561  0.53140  Biso   1.000  O
  O47      1.0000 0.35426  0.63454  0.53175  Biso   1.000  O
  O48      1.0000 0.47855  0.63337  0.24054  Biso   1.000  O
  O49      1.0000 0.64547  0.63529  0.24104  Biso   1.000  O
  O50      1.0000 0.64583  0.46686  0.24019  Biso   1.000  O
  O51      1.0000 0.03521  0.01553  0.91355  Biso   1.000  O
  O52      1.0000 0.53142  0.51932  0.41735  Biso   1.000  O
  H25      1.0000 0.11580  0.81700  0.71177  Biso   1.000  H
  H26      1.0000 0.35495  0.81374  0.71502  Biso   1.000  H
  H27      1.0000 0.45084  0.71786  0.61914  Biso   1.000  H
  H28      1.0000 0.21169  0.72111  0.61588  Biso   1.000  H
  H29      1.0000 0.35375  0.09593  0.71626  Biso   1.000  H
  H30      1.0000 0.45101  0.19319  0.61900  Biso   1.000  H
  H31      1.0000 0.83357  0.81824  0.99395  Biso   1.000  H
  H32      1.0000 0.73630  0.72098  0.09121  Biso   1.000  H
  H33      1.0000 0.83657  0.34186  0.71309  Biso   1.000  H
  H34      1.0000 0.83344  0.34285  0.99413  Biso   1.000  H
  H35      1.0000 0.45864  0.71979  0.09101  Biso   1.000  H
  H36      1.0000 0.73755  0.43874  0.09002  Biso   1.000  H
  H37      1.0000 0.11562  0.34166  0.71190  Biso   1.000  H
  H38      1.0000 0.21288  0.43893  0.61464  Biso   1.000  H
  H39      1.0000 0.83033  0.81388  0.23969  Biso   1.000  H
  H40      1.0000 0.73307  0.71661  0.33696  Biso   1.000  H
  H41      1.0000 0.21268  0.71797  0.33698  Biso   1.000  H
  H42      1.0000 0.82908  0.09611  0.24088  Biso   1.000  H
  H43      1.0000 0.73320  0.19200  0.33677  Biso   1.000  H
  H44      1.0000 0.10799  0.81506  0.23989  Biso   1.000  H
  H45      1.0000 0.73006  0.19299  0.61782  Biso   1.000  H
  H46      1.0000 0.83474  0.09591  0.71490  Biso   1.000  H
  H47      1.0000 0.73189  0.43895  0.61600  Biso   1.000  H
