data_image0
_cell_length_a       18.2704
_cell_length_b       18.2704
_cell_length_c       18.2704
_cell_angle_alpha    60
_cell_angle_beta     60
_cell_angle_gamma    60

_symmetry_space_group_name_H-M    "P 1"
_symmetry_int_tables_number       1

loop_
  _symmetry_equiv_pos_as_xyz
  'x, y, z'

loop_
  _atom_site_label
  _atom_site_occupancy
  _atom_site_fract_x
  _atom_site_fract_y
  _atom_site_fract_z
  _atom_site_thermal_displace_type
  _atom_site_B_iso_or_equiv
  _atom_site_type_symbol
  C1       1.0000 0.29350  0.29349  0.11952  Biso   1.000  C
  C2       1.0000 0.29350  0.29349  0.29349  Biso   1.000  C
  C3       1.0000 0.11953  0.29349  0.29349  Biso   1.000  C
  C4       1.0000 0.29350  0.11952  0.29349  Biso   1.000  C
  C5       1.0000 0.70650  0.70651  0.88048  Biso   1.000  C
  C6       1.0000 0.70650  0.70651  0.70651  Biso   1.000  C
  C7       1.0000 0.70650  0.88048  0.70651  Biso   1.000  C
  C8       1.0000 0.88047  0.70651  0.70651  Biso   1.000  C
  C9       1.0000 0.45540  0.45540  0.93560  Biso   1.000  C
  C10      1.0000 0.45540  0.45540  0.15360  Biso   1.000  C
  C11      1.0000 0.93560  0.15360  0.45540  Biso   1.000  C
  C12      1.0000 0.15360  0.93560  0.45540  Biso   1.000  C
  C13      1.0000 0.45540  0.93560  0.15360  Biso   1.000  C
  C14      1.0000 0.45540  0.15360  0.93560  Biso   1.000  C
  C15      1.0000 0.93560  0.45540  0.45540  Biso   1.000  C
  C16      1.0000 0.15360  0.45540  0.45540  Biso   1.000  C
  C17      1.0000 0.45540  0.15360  0.45540  Biso   1.000  C
  C18      1.0000 0.45540  0.93560  0.45540  Biso   1.000  C
  C19      1.0000 0.93560  0.45540  0.15360  Biso   1.000  C
  C20      1.0000 0.15360  0.45540  0.93560  Biso   1.000  C
  C21      1.0000 0.54460  0.54460  0.06440  Biso   1.000  C
  C22      1.0000 0.54460  0.54460  0.84640  Biso   1.000  C
  C23      1.0000 0.84640  0.06440  0.54460  Biso   1.000  C
  C24      1.0000 0.06440  0.84640  0.54460  Biso   1.000  C
  C25      1.0000 0.06440  0.54460  0.84640  Biso   1.000  C
  C26      1.0000 0.84640  0.54460  0.06440  Biso   1.000  C
  C27      1.0000 0.54460  0.06440  0.54460  Biso   1.000  C
  C28      1.0000 0.54460  0.84640  0.54460  Biso   1.000  C
  C29      1.0000 0.84640  0.54460  0.54460  Biso   1.000  C
  C30      1.0000 0.06440  0.54460  0.54460  Biso   1.000  C
  C31      1.0000 0.54460  0.06440  0.84640  Biso   1.000  C
  C32      1.0000 0.54460  0.84640  0.06440  Biso   1.000  C
  C33      1.0000 0.47338  0.47338  0.96238  Biso   1.000  C
  C34      1.0000 0.47338  0.47338  0.09086  Biso   1.000  C
  C35      1.0000 0.96238  0.09086  0.47338  Biso   1.000  C
  C36      1.0000 0.09086  0.96238  0.47338  Biso   1.000  C
  C37      1.0000 0.47338  0.96238  0.09086  Biso   1.000  C
  C38      1.0000 0.47338  0.09086  0.96238  Biso   1.000  C
  C39      1.0000 0.96238  0.47338  0.47338  Biso   1.000  C
  C40      1.0000 0.09086  0.47338  0.47338  Biso   1.000  C
  C41      1.0000 0.47338  0.09086  0.47338  Biso   1.000  C
  C42      1.0000 0.47338  0.96238  0.47338  Biso   1.000  C
  C43      1.0000 0.96238  0.47338  0.09086  Biso   1.000  C
  C44      1.0000 0.09086  0.47338  0.96238  Biso   1.000  C
  C45      1.0000 0.52662  0.52662  0.03762  Biso   1.000  C
  C46      1.0000 0.52662  0.52662  0.90914  Biso   1.000  C
  C47      1.0000 0.90914  0.03762  0.52662  Biso   1.000  C
  C48      1.0000 0.03762  0.90914  0.52662  Biso   1.000  C
  C49      1.0000 0.03762  0.52662  0.90914  Biso   1.000  C
  C50      1.0000 0.90914  0.52662  0.03762  Biso   1.000  C
  C51      1.0000 0.52662  0.03762  0.52662  Biso   1.000  C
  C52      1.0000 0.52662  0.90914  0.52662  Biso   1.000  C
  C53      1.0000 0.90914  0.52662  0.52662  Biso   1.000  C
  C54      1.0000 0.03762  0.52662  0.52662  Biso   1.000  C
  C55      1.0000 0.52662  0.03762  0.90914  Biso   1.000  C
  C56      1.0000 0.52662  0.90914  0.03762  Biso   1.000  C
  C57      1.0000 0.38861  0.38861  0.11139  Biso   1.000  C
  C58      1.0000 0.44619  0.44619  0.05381  Biso   1.000  C
  C59      1.0000 0.11139  0.11139  0.38861  Biso   1.000  C
  C60      1.0000 0.05381  0.05381  0.44619  Biso   1.000  C
  C61      1.0000 0.38861  0.11139  0.11139  Biso   1.000  C
  C62      1.0000 0.44619  0.05381  0.05381  Biso   1.000  C
  C63      1.0000 0.11139  0.38861  0.38861  Biso   1.000  C
  C64      1.0000 0.05381  0.44619  0.44619  Biso   1.000  C
  C65      1.0000 0.38861  0.11139  0.38861  Biso   1.000  C
  C66      1.0000 0.44619  0.05381  0.44619  Biso   1.000  C
  C67      1.0000 0.11139  0.38861  0.11139  Biso   1.000  C
  C68      1.0000 0.05381  0.44619  0.05381  Biso   1.000  C
  C69      1.0000 0.61139  0.61139  0.88861  Biso   1.000  C
  C70      1.0000 0.55381  0.55381  0.94619  Biso   1.000  C
  C71      1.0000 0.88861  0.88861  0.61139  Biso   1.000  C
  C72      1.0000 0.94619  0.94619  0.55381  Biso   1.000  C
  C73      1.0000 0.88861  0.61139  0.88861  Biso   1.000  C
  C74      1.0000 0.94619  0.55381  0.94619  Biso   1.000  C
  C75      1.0000 0.61139  0.88861  0.61139  Biso   1.000  C
  C76      1.0000 0.55381  0.94619  0.55381  Biso   1.000  C
  C77      1.0000 0.88861  0.61139  0.61139  Biso   1.000  C
  C78      1.0000 0.94619  0.55381  0.55381  Biso   1.000  C
  C79      1.0000 0.61139  0.88861  0.88861  Biso   1.000  C
  C80      1.0000 0.55381  0.94619  0.94619  Biso   1.000  C
  C81      1.0000 0.25000  0.25000  0.25000  Biso   1.000  C
  C82      1.0000 0.75000  0.75000  0.75000  Biso   1.000  C
  C83      1.0000 0.36607  0.36607  0.07299  Biso   1.000  C
  C84      1.0000 0.36607  0.36607  0.19487  Biso   1.000  C
  C85      1.0000 0.07299  0.19487  0.36607  Biso   1.000  C
  C86      1.0000 0.19487  0.07299  0.36607  Biso   1.000  C
  C87      1.0000 0.36607  0.07299  0.19487  Biso   1.000  C
  C88      1.0000 0.36607  0.19487  0.07299  Biso   1.000  C
  C89      1.0000 0.07299  0.36607  0.36607  Biso   1.000  C
  C90      1.0000 0.19487  0.36607  0.36607  Biso   1.000  C
  C91      1.0000 0.36607  0.19487  0.36607  Biso   1.000  C
  C92      1.0000 0.36607  0.07299  0.36607  Biso   1.000  C
  C93      1.0000 0.07299  0.36607  0.19487  Biso   1.000  C
  C94      1.0000 0.19487  0.36607  0.07299  Biso   1.000  C
  C95      1.0000 0.63393  0.63393  0.92701  Biso   1.000  C
  C96      1.0000 0.63393  0.63393  0.80513  Biso   1.000  C
  C97      1.0000 0.80513  0.92701  0.63393  Biso   1.000  C
  C98      1.0000 0.92701  0.80513  0.63393  Biso   1.000  C
  C99      1.0000 0.92701  0.63393  0.80513  Biso   1.000  C
  C100     1.0000 0.80513  0.63393  0.92701  Biso   1.000  C
  C101     1.0000 0.63393  0.92701  0.63393  Biso   1.000  C
  C102     1.0000 0.63393  0.80513  0.63393  Biso   1.000  C
  C103     1.0000 0.80513  0.63393  0.63393  Biso   1.000  C
  C104     1.0000 0.92701  0.63393  0.63393  Biso   1.000  C
  C105     1.0000 0.63393  0.92701  0.80513  Biso   1.000  C
  C106     1.0000 0.63393  0.80513  0.92701  Biso   1.000  C
  O1       1.0000 0.99318  0.97353  0.87145  Biso   1.000  O
  O2       1.0000 0.99322  0.14568  0.87140  Biso   1.000  O
  O3       1.0000 0.16538  0.97353  0.87145  Biso   1.000  O
  O4       1.0000 0.99323  0.97348  0.04359  Biso   1.000  O
  O5       1.0000 0.57604  0.56287  0.46079  Biso   1.000  O
  O6       1.0000 0.57599  0.39072  0.46084  Biso   1.000  O
  O7       1.0000 0.40384  0.56287  0.46079  Biso   1.000  O
  O8       1.0000 0.57599  0.56292  0.28865  Biso   1.000  O
  O9       1.0000 0.81393  0.17311  0.69315  Biso   1.000  O
  O10      1.0000 0.19302  0.79502  0.69115  Biso   1.000  O
  O11      1.0000 0.81334  0.79602  0.07103  Biso   1.000  O
  O12      1.0000 0.81495  0.31023  0.69216  Biso   1.000  O
  O13      1.0000 0.81295  0.31123  0.07123  Biso   1.000  O
  O14      1.0000 0.19283  0.31004  0.69155  Biso   1.000  O
  O15      1.0000 0.32334  0.79523  0.07102  Biso   1.000  O
  O16      1.0000 0.32434  0.79323  0.69294  Biso   1.000  O
  O17      1.0000 0.32314  0.17312  0.69394  Biso   1.000  O
  O18      1.0000 0.18621  0.79423  0.20815  Biso   1.000  O
  O19      1.0000 0.80813  0.17331  0.20916  Biso   1.000  O
  O20      1.0000 0.80913  0.79363  0.20796  Biso   1.000  O
  O21      1.0000 0.75528  0.36329  0.63909  Biso   1.000  O
  O22      1.0000 0.37620  0.74138  0.64109  Biso   1.000  O
  O23      1.0000 0.75588  0.74038  0.26121  Biso   1.000  O
  O24      1.0000 0.75427  0.22617  0.64008  Biso   1.000  O
  O25      1.0000 0.75627  0.22517  0.26101  Biso   1.000  O
  O26      1.0000 0.37639  0.22636  0.64069  Biso   1.000  O
  O27      1.0000 0.24588  0.74117  0.26122  Biso   1.000  O
  O28      1.0000 0.24487  0.74317  0.63930  Biso   1.000  O
  O29      1.0000 0.24607  0.36328  0.63831  Biso   1.000  O
  O30      1.0000 0.38300  0.74217  0.12409  Biso   1.000  O
  O31      1.0000 0.76109  0.36309  0.12309  Biso   1.000  O
  O32      1.0000 0.76009  0.74277  0.12428  Biso   1.000  O
  O33      1.0000 0.84134  0.21146  0.71957  Biso   1.000  O
  O34      1.0000 0.89964  0.15317  0.77786  Biso   1.000  O
  O35      1.0000 0.23116  0.82165  0.10938  Biso   1.000  O
  O36      1.0000 0.17287  0.87994  0.05108  Biso   1.000  O
  O37      1.0000 0.72787  0.32494  0.61268  Biso   1.000  O
  O38      1.0000 0.66958  0.38323  0.55438  Biso   1.000  O
  O39      1.0000 0.33806  0.71475  0.22286  Biso   1.000  O
  O40      1.0000 0.39635  0.65646  0.28116  Biso   1.000  O
  O41      1.0000 0.84115  0.82145  0.10958  Biso   1.000  O
  O42      1.0000 0.89916  0.87947  0.05156  Biso   1.000  O
  O43      1.0000 0.23135  0.21166  0.71937  Biso   1.000  O
  O44      1.0000 0.17334  0.15365  0.77738  Biso   1.000  O
  O45      1.0000 0.72807  0.71495  0.22267  Biso   1.000  O
  O46      1.0000 0.67005  0.65693  0.28068  Biso   1.000  O
  O47      1.0000 0.33786  0.32474  0.61287  Biso   1.000  O
  O48      1.0000 0.39588  0.38275  0.55486  Biso   1.000  O
  O49      1.0000 0.23156  0.82125  0.71917  Biso   1.000  O
  O50      1.0000 0.17354  0.87926  0.77718  Biso   1.000  O
  O51      1.0000 0.84094  0.21186  0.10977  Biso   1.000  O
  O52      1.0000 0.89896  0.15385  0.05176  Biso   1.000  O
  O53      1.0000 0.33766  0.71515  0.61307  Biso   1.000  O
  O54      1.0000 0.39567  0.65713  0.55506  Biso   1.000  O
  O55      1.0000 0.72827  0.32454  0.22247  Biso   1.000  O
  O56      1.0000 0.67026  0.38255  0.28048  Biso   1.000  O
  O57      1.0000 0.92209  0.06948  0.79872  Biso   1.000  O
  O58      1.0000 0.92016  0.90239  0.96823  Biso   1.000  O
  O59      1.0000 0.08877  0.90203  0.79914  Biso   1.000  O
  O60      1.0000 0.92050  0.19354  0.80031  Biso   1.000  O
  O61      1.0000 0.09001  0.19304  0.79838  Biso   1.000  O
  O62      1.0000 0.92091  0.19390  0.96698  Biso   1.000  O
  O63      1.0000 0.21324  0.90080  0.96740  Biso   1.000  O
  O64      1.0000 0.21274  0.07032  0.80031  Biso   1.000  O
  O65      1.0000 0.21360  0.90122  0.79995  Biso   1.000  O
  O66      1.0000 0.08918  0.90239  0.09146  Biso   1.000  O
  O67      1.0000 0.92209  0.90047  0.09096  Biso   1.000  O
  O68      1.0000 0.92173  0.06907  0.09181  Biso   1.000  O
  O69      1.0000 0.64713  0.46692  0.53352  Biso   1.000  O
  O70      1.0000 0.64905  0.63401  0.36401  Biso   1.000  O
  O71      1.0000 0.48045  0.63437  0.53310  Biso   1.000  O
  O72      1.0000 0.64872  0.34286  0.53193  Biso   1.000  O
  O73      1.0000 0.47921  0.34335  0.53386  Biso   1.000  O
  O74      1.0000 0.64830  0.34250  0.36526  Biso   1.000  O
  O75      1.0000 0.35598  0.63560  0.36484  Biso   1.000  O
  O76      1.0000 0.35648  0.46608  0.53193  Biso   1.000  O
  O77      1.0000 0.35562  0.63518  0.53229  Biso   1.000  O
  O78      1.0000 0.48003  0.63401  0.24079  Biso   1.000  O
  O79      1.0000 0.64713  0.63593  0.24128  Biso   1.000  O
  O80      1.0000 0.64749  0.46733  0.24043  Biso   1.000  O
  O81      1.0000 0.03625  0.01656  0.91447  Biso   1.000  O
  O82      1.0000 0.53297  0.51984  0.41777  Biso   1.000  O
  O83      1.0000 0.11692  0.81782  0.71248  Biso   1.000  O
  O84      1.0000 0.35631  0.81456  0.71574  Biso   1.000  O
  O85      1.0000 0.45230  0.71858  0.61976  Biso   1.000  O
  O86      1.0000 0.21291  0.72184  0.61650  Biso   1.000  O
  O87      1.0000 0.35511  0.09703  0.71698  Biso   1.000  O
  O88      1.0000 0.45248  0.19439  0.61962  Biso   1.000  O
  O89      1.0000 0.83441  0.81907  0.99495  Biso   1.000  O
  O90      1.0000 0.73704  0.72170  0.09231  Biso   1.000  O
  O91      1.0000 0.83742  0.34220  0.71380  Biso   1.000  O
  O92      1.0000 0.83428  0.34320  0.99514  Biso   1.000  O
  O93      1.0000 0.45910  0.72052  0.09211  Biso   1.000  O
  O94      1.0000 0.73829  0.43918  0.09112  Biso   1.000  O
  O95      1.0000 0.11674  0.34201  0.71262  Biso   1.000  O
  O96      1.0000 0.21410  0.43937  0.61526  Biso   1.000  O
  O97      1.0000 0.83217  0.81470  0.23993  Biso   1.000  O
  O98      1.0000 0.73481  0.71733  0.33729  Biso   1.000  O
  O99      1.0000 0.21390  0.71869  0.33731  Biso   1.000  O
  O100     1.0000 0.83093  0.09721  0.24112  Biso   1.000  O
  O101     1.0000 0.73494  0.19320  0.33711  Biso   1.000  O
  O102     1.0000 0.11012  0.81588  0.24013  Biso   1.000  O
  O103     1.0000 0.73180  0.19420  0.61844  Biso   1.000  O
  O104     1.0000 0.83558  0.09701  0.71562  Biso   1.000  O
  O105     1.0000 0.73363  0.43939  0.61662  Biso   1.000  O
