data_image0
_cell_length_a       18.2455
_cell_length_b       18.2455
_cell_length_c       18.2455
_cell_angle_alpha    60
_cell_angle_beta     60
_cell_angle_gamma    60

_symmetry_space_group_name_H-M    "P 1"
_symmetry_int_tables_number       1

loop_
  _symmetry_equiv_pos_as_xyz
  'x, y, z'

loop_
  _atom_site_label
  _atom_site_occupancy
  _atom_site_fract_x
  _atom_site_fract_y
  _atom_site_fract_z
  _atom_site_thermal_displace_type
  _atom_site_B_iso_or_equiv
  _atom_site_type_symbol
  C1       1.0000 0.29354  0.29354  0.11938  Biso   1.000  C
  C2       1.0000 0.29354  0.29354  0.29354  Biso   1.000  C
  C3       1.0000 0.11938  0.29354  0.29354  Biso   1.000  C
  C4       1.0000 0.29354  0.11938  0.29354  Biso   1.000  C
  C5       1.0000 0.70646  0.70646  0.88062  Biso   1.000  C
  C6       1.0000 0.70646  0.70646  0.70646  Biso   1.000  C
  C7       1.0000 0.70646  0.88062  0.70646  Biso   1.000  C
  C8       1.0000 0.88062  0.70646  0.70646  Biso   1.000  C
  C9       1.0000 0.45580  0.45580  0.93620  Biso   1.000  C
  C10      1.0000 0.45580  0.45580  0.15220  Biso   1.000  C
  C11      1.0000 0.93620  0.15220  0.45580  Biso   1.000  C
  C12      1.0000 0.15220  0.93620  0.45580  Biso   1.000  C
  C13      1.0000 0.45580  0.93620  0.15220  Biso   1.000  C
  C14      1.0000 0.45580  0.15220  0.93620  Biso   1.000  C
  C15      1.0000 0.93620  0.45580  0.45580  Biso   1.000  C
  C16      1.0000 0.15220  0.45580  0.45580  Biso   1.000  C
  C17      1.0000 0.45580  0.15220  0.45580  Biso   1.000  C
  C18      1.0000 0.45580  0.93620  0.45580  Biso   1.000  C
  C19      1.0000 0.93620  0.45580  0.15220  Biso   1.000  C
  C20      1.0000 0.15220  0.45580  0.93620  Biso   1.000  C
  C21      1.0000 0.54420  0.54420  0.06380  Biso   1.000  C
  C22      1.0000 0.54420  0.54420  0.84780  Biso   1.000  C
  C23      1.0000 0.84780  0.06380  0.54420  Biso   1.000  C
  C24      1.0000 0.06380  0.84780  0.54420  Biso   1.000  C
  C25      1.0000 0.06380  0.54420  0.84780  Biso   1.000  C
  C26      1.0000 0.84780  0.54420  0.06380  Biso   1.000  C
  C27      1.0000 0.54420  0.06380  0.54420  Biso   1.000  C
  C28      1.0000 0.54420  0.84780  0.54420  Biso   1.000  C
  C29      1.0000 0.84780  0.54420  0.54420  Biso   1.000  C
  C30      1.0000 0.06380  0.54420  0.54420  Biso   1.000  C
  C31      1.0000 0.54420  0.06380  0.84780  Biso   1.000  C
  C32      1.0000 0.54420  0.84780  0.06380  Biso   1.000  C
  C33      1.0000 0.47345  0.47345  0.96303  Biso   1.000  C
  C34      1.0000 0.47345  0.47345  0.09007  Biso   1.000  C
  C35      1.0000 0.96303  0.09007  0.47345  Biso   1.000  C
  C36      1.0000 0.09007  0.96303  0.47345  Biso   1.000  C
  C37      1.0000 0.47345  0.96303  0.09007  Biso   1.000  C
  C38      1.0000 0.47345  0.09007  0.96303  Biso   1.000  C
  C39      1.0000 0.96303  0.47345  0.47345  Biso   1.000  C
  C40      1.0000 0.09007  0.47345  0.47345  Biso   1.000  C
  C41      1.0000 0.47345  0.09007  0.47345  Biso   1.000  C
  C42      1.0000 0.47345  0.96303  0.47345  Biso   1.000  C
  C43      1.0000 0.96303  0.47345  0.09007  Biso   1.000  C
  C44      1.0000 0.09007  0.47345  0.96303  Biso   1.000  C
  C45      1.0000 0.52655  0.52655  0.03697  Biso   1.000  C
  C46      1.0000 0.52655  0.52655  0.90993  Biso   1.000  C
  C47      1.0000 0.90993  0.03697  0.52655  Biso   1.000  C
  C48      1.0000 0.03697  0.90993  0.52655  Biso   1.000  C
  C49      1.0000 0.03697  0.52655  0.90993  Biso   1.000  C
  C50      1.0000 0.90993  0.52655  0.03697  Biso   1.000  C
  C51      1.0000 0.52655  0.03697  0.52655  Biso   1.000  C
  C52      1.0000 0.52655  0.90993  0.52655  Biso   1.000  C
  C53      1.0000 0.90993  0.52655  0.52655  Biso   1.000  C
  C54      1.0000 0.03697  0.52655  0.52655  Biso   1.000  C
  C55      1.0000 0.52655  0.03697  0.90993  Biso   1.000  C
  C56      1.0000 0.52655  0.90993  0.03697  Biso   1.000  C
  C57      1.0000 0.38857  0.38857  0.11143  Biso   1.000  C
  C58      1.0000 0.44620  0.44620  0.05380  Biso   1.000  C
  C59      1.0000 0.11143  0.11143  0.38857  Biso   1.000  C
  C60      1.0000 0.05380  0.05380  0.44620  Biso   1.000  C
  C61      1.0000 0.38857  0.11143  0.11143  Biso   1.000  C
  C62      1.0000 0.44620  0.05380  0.05380  Biso   1.000  C
  C63      1.0000 0.11143  0.38857  0.38857  Biso   1.000  C
  C64      1.0000 0.05380  0.44620  0.44620  Biso   1.000  C
  C65      1.0000 0.38857  0.11143  0.38857  Biso   1.000  C
  C66      1.0000 0.44620  0.05380  0.44620  Biso   1.000  C
  C67      1.0000 0.11143  0.38857  0.11143  Biso   1.000  C
  C68      1.0000 0.05380  0.44620  0.05380  Biso   1.000  C
  C69      1.0000 0.61143  0.61143  0.88857  Biso   1.000  C
  C70      1.0000 0.55380  0.55380  0.94620  Biso   1.000  C
  C71      1.0000 0.88857  0.88857  0.61143  Biso   1.000  C
  C72      1.0000 0.94620  0.94620  0.55380  Biso   1.000  C
  C73      1.0000 0.88857  0.61143  0.88857  Biso   1.000  C
  C74      1.0000 0.94620  0.55380  0.94620  Biso   1.000  C
  C75      1.0000 0.61143  0.88857  0.61143  Biso   1.000  C
  C76      1.0000 0.55380  0.94620  0.55380  Biso   1.000  C
  C77      1.0000 0.88857  0.61143  0.61143  Biso   1.000  C
  C78      1.0000 0.94620  0.55380  0.55380  Biso   1.000  C
  C79      1.0000 0.61143  0.88857  0.88857  Biso   1.000  C
  C80      1.0000 0.55380  0.94620  0.94620  Biso   1.000  C
  C81      1.0000 0.25000  0.25000  0.25000  Biso   1.000  C
  C82      1.0000 0.75000  0.75000  0.75000  Biso   1.000  C
  C83      1.0000 0.36603  0.36603  0.07311  Biso   1.000  C
  C84      1.0000 0.36603  0.36603  0.19483  Biso   1.000  C
  C85      1.0000 0.07311  0.19483  0.36603  Biso   1.000  C
  C86      1.0000 0.19483  0.07311  0.36603  Biso   1.000  C
  C87      1.0000 0.36603  0.07311  0.19483  Biso   1.000  C
  C88      1.0000 0.36603  0.19483  0.07311  Biso   1.000  C
  C89      1.0000 0.07311  0.36603  0.36603  Biso   1.000  C
  C90      1.0000 0.19483  0.36603  0.36603  Biso   1.000  C
  C91      1.0000 0.36603  0.19483  0.36603  Biso   1.000  C
  C92      1.0000 0.36603  0.07311  0.36603  Biso   1.000  C
  C93      1.0000 0.07311  0.36603  0.19483  Biso   1.000  C
  C94      1.0000 0.19483  0.36603  0.07311  Biso   1.000  C
  C95      1.0000 0.63397  0.63397  0.92689  Biso   1.000  C
  C96      1.0000 0.63397  0.63397  0.80517  Biso   1.000  C
  C97      1.0000 0.80517  0.92689  0.63397  Biso   1.000  C
  C98      1.0000 0.92689  0.80517  0.63397  Biso   1.000  C
  C99      1.0000 0.92689  0.63397  0.80517  Biso   1.000  C
  C100     1.0000 0.80517  0.63397  0.92689  Biso   1.000  C
  C101     1.0000 0.63397  0.92689  0.63397  Biso   1.000  C
  C102     1.0000 0.63397  0.80517  0.63397  Biso   1.000  C
  C103     1.0000 0.80517  0.63397  0.63397  Biso   1.000  C
  C104     1.0000 0.92689  0.63397  0.63397  Biso   1.000  C
  C105     1.0000 0.63397  0.92689  0.80517  Biso   1.000  C
  C106     1.0000 0.63397  0.80517  0.92689  Biso   1.000  C
  O1       1.0000 0.16442  0.00000  0.00000  Biso   1.000  O
  O2       1.0000 0.57639  0.58790  0.41224  Biso   1.000  O
  O3       1.0000 0.57639  0.41296  0.41224  Biso   1.000  O
  O4       1.0000 0.16442  0.82506  0.00000  Biso   1.000  O
  O5       1.0000 0.16397  0.00034  0.82484  Biso   1.000  O
  O6       1.0000 0.98908  0.00015  0.00010  Biso   1.000  O
  O7       1.0000 0.57685  0.41262  0.58740  Biso   1.000  O
  O8       1.0000 0.75173  0.41281  0.41214  Biso   1.000  O
  O9       1.0000 0.32723  0.64573  0.85638  Biso   1.000  O
  O10      1.0000 0.32126  0.86026  0.64459  Biso   1.000  O
  O11      1.0000 0.02324  0.64681  0.16021  Biso   1.000  O
  O12      1.0000 0.80601  0.85773  0.16251  Biso   1.000  O
  O13      1.0000 0.32804  0.85973  0.15770  Biso   1.000  O
  O14      1.0000 0.41359  0.25280  0.55586  Biso   1.000  O
  O15      1.0000 0.41955  0.24959  0.76764  Biso   1.000  O
  O16      1.0000 0.71758  0.25372  0.25203  Biso   1.000  O
  O17      1.0000 0.93481  0.24972  0.24973  Biso   1.000  O
  O18      1.0000 0.41277  0.76895  0.25453  Biso   1.000  O
  O19      1.0000 0.41359  0.76723  0.55586  Biso   1.000  O
  O20      1.0000 0.41955  0.55270  0.76764  Biso   1.000  O
  O21      1.0000 0.71758  0.76615  0.25203  Biso   1.000  O
  O22      1.0000 0.93481  0.55523  0.24973  Biso   1.000  O
  O23      1.0000 0.41278  0.55323  0.25453  Biso   1.000  O
  O24      1.0000 0.32722  0.16015  0.85638  Biso   1.000  O
  O25      1.0000 0.32126  0.16337  0.64459  Biso   1.000  O
  O26      1.0000 0.02323  0.15924  0.16021  Biso   1.000  O
  O27      1.0000 0.80601  0.16324  0.16251  Biso   1.000  O
  O28      1.0000 0.32804  0.64401  0.15770  Biso   1.000  O
  O29      1.0000 0.80689  0.16206  0.85848  Biso   1.000  O
  O30      1.0000 0.02086  0.16317  0.64229  Biso   1.000  O
  O31      1.0000 0.93392  0.25090  0.55376  Biso   1.000  O
  O32      1.0000 0.71996  0.24979  0.76995  Biso   1.000  O
  O33      1.0000 0.25875  0.81653  0.81997  Biso   1.000  O
  O34      1.0000 0.31837  0.75842  0.75874  Biso   1.000  O
  O35      1.0000 0.34503  0.67144  0.79416  Biso   1.000  O
  O36      1.0000 0.34067  0.79814  0.67060  Biso   1.000  O
  O37      1.0000 0.97956  0.81972  0.09718  Biso   1.000  O
  O38      1.0000 0.92545  0.76120  0.15250  Biso   1.000  O
  O39      1.0000 0.96101  0.67302  0.17821  Biso   1.000  O
  O40      1.0000 0.83372  0.79571  0.18001  Biso   1.000  O
  O41      1.0000 0.34394  0.79761  0.17781  Biso   1.000  O
  O42      1.0000 0.48207  0.31872  0.59227  Biso   1.000  O
  O43      1.0000 0.42245  0.25900  0.65350  Biso   1.000  O
  O44      1.0000 0.39579  0.23409  0.61808  Biso   1.000  O
  O45      1.0000 0.40014  0.23289  0.74163  Biso   1.000  O
  O46      1.0000 0.76125  0.31994  0.31506  Biso   1.000  O
  O47      1.0000 0.81537  0.26262  0.25974  Biso   1.000  O
  O48      1.0000 0.77980  0.23571  0.23403  Biso   1.000  O
  O49      1.0000 0.90710  0.23291  0.23222  Biso   1.000  O
  O50      1.0000 0.39687  0.74284  0.23443  Biso   1.000  O
  O51      1.0000 0.48207  0.59642  0.59227  Biso   1.000  O
  O52      1.0000 0.42245  0.65454  0.65350  Biso   1.000  O
  O53      1.0000 0.39579  0.74152  0.61808  Biso   1.000  O
  O54      1.0000 0.40015  0.61482  0.74163  Biso   1.000  O
  O55      1.0000 0.76125  0.59324  0.31506  Biso   1.000  O
  O56      1.0000 0.81537  0.65176  0.25974  Biso   1.000  O
  O57      1.0000 0.77980  0.73994  0.23403  Biso   1.000  O
  O58      1.0000 0.90710  0.61725  0.23222  Biso   1.000  O
  O59      1.0000 0.39687  0.61535  0.23443  Biso   1.000  O
  O60      1.0000 0.25875  0.09423  0.81997  Biso   1.000  O
  O61      1.0000 0.31837  0.15396  0.75874  Biso   1.000  O
  O62      1.0000 0.34503  0.17886  0.79416  Biso   1.000  O
  O63      1.0000 0.34067  0.18007  0.67060  Biso   1.000  O
  O64      1.0000 0.97956  0.09302  0.09718  Biso   1.000  O
  O65      1.0000 0.92545  0.15034  0.15250  Biso   1.000  O
  O66      1.0000 0.96101  0.17724  0.17821  Biso   1.000  O
  O67      1.0000 0.83372  0.18004  0.18001  Biso   1.000  O
  O68      1.0000 0.34395  0.67012  0.17781  Biso   1.000  O
  O69      1.0000 0.98625  0.09503  0.81316  Biso   1.000  O
  O70      1.0000 0.92403  0.15226  0.76094  Biso   1.000  O
  O71      1.0000 0.83410  0.17946  0.79646  Biso   1.000  O
  O72      1.0000 0.95874  0.18067  0.66940  Biso   1.000  O
  O73      1.0000 0.25726  0.82152  0.08918  Biso   1.000  O
  O74      1.0000 0.31728  0.75980  0.15260  Biso   1.000  O
  O75      1.0000 0.75456  0.31792  0.59908  Biso   1.000  O
  O76      1.0000 0.81679  0.26070  0.65130  Biso   1.000  O
  O77      1.0000 0.90672  0.23349  0.61578  Biso   1.000  O
  O78      1.0000 0.78208  0.23229  0.74283  Biso   1.000  O
  O79      1.0000 0.48355  0.59144  0.32306  Biso   1.000  O
  O80      1.0000 0.42353  0.65316  0.25964  Biso   1.000  O
  O81      1.0000 0.23864  0.90197  0.77405  Biso   1.000  O
  O82      1.0000 0.23994  0.77261  0.90420  Biso   1.000  O
  O83      1.0000 0.93965  0.90295  0.07067  Biso   1.000  O
  O84      1.0000 0.06589  0.77561  0.07467  Biso   1.000  O
  O85      1.0000 0.23815  0.90395  0.07187  Biso   1.000  O
  O86      1.0000 0.50218  0.33813  0.63819  Biso   1.000  O
  O87      1.0000 0.50087  0.34024  0.50804  Biso   1.000  O
  O88      1.0000 0.80117  0.33674  0.34157  Biso   1.000  O
  O89      1.0000 0.67492  0.33965  0.33757  Biso   1.000  O
  O90      1.0000 0.50266  0.63745  0.34037  Biso   1.000  O
  O91      1.0000 0.50218  0.51099  0.63819  Biso   1.000  O
  O92      1.0000 0.50087  0.64034  0.50804  Biso   1.000  O
  O93      1.0000 0.80117  0.51001  0.34157  Biso   1.000  O
  O94      1.0000 0.67492  0.63735  0.33757  Biso   1.000  O
  O95      1.0000 0.50266  0.50901  0.34037  Biso   1.000  O
  O96      1.0000 0.23864  0.07483  0.77405  Biso   1.000  O
  O97      1.0000 0.23995  0.07272  0.90420  Biso   1.000  O
  O98      1.0000 0.93965  0.07621  0.07067  Biso   1.000  O
  O99      1.0000 0.06589  0.07331  0.07467  Biso   1.000  O
  O100     1.0000 0.23815  0.77551  0.07187  Biso   1.000  O
  O101     1.0000 0.12121  0.95618  0.95592  Biso   1.000  O
  O102     1.0000 0.06708  0.07383  0.77475  Biso   1.000  O
  O103     1.0000 0.94104  0.07612  0.89620  Biso   1.000  O
  O104     1.0000 0.61961  0.45678  0.45632  Biso   1.000  O
  O105     1.0000 0.67374  0.33913  0.63749  Biso   1.000  O
