data_image0
_cell_length_a       18.2789
_cell_length_b       18.2789
_cell_length_c       18.2789
_cell_angle_alpha    60
_cell_angle_beta     60
_cell_angle_gamma    60

_symmetry_space_group_name_H-M    "P 1"
_symmetry_int_tables_number       1

loop_
  _symmetry_equiv_pos_as_xyz
  'x, y, z'

loop_
  _atom_site_label
  _atom_site_occupancy
  _atom_site_fract_x
  _atom_site_fract_y
  _atom_site_fract_z
  _atom_site_thermal_displace_type
  _atom_site_B_iso_or_equiv
  _atom_site_type_symbol
  Zn1      1.0000 0.29348  0.29347  0.11958  Biso   1.000  Zn
  Zn2      1.0000 0.29348  0.29347  0.29347  Biso   1.000  Zn
  Zn3      1.0000 0.11959  0.29347  0.29347  Biso   1.000  Zn
  Zn4      1.0000 0.29348  0.11958  0.29347  Biso   1.000  Zn
  Zn5      1.0000 0.70652  0.70653  0.88042  Biso   1.000  Zn
  Zn6      1.0000 0.70652  0.70653  0.70653  Biso   1.000  Zn
  Zn7      1.0000 0.70652  0.88042  0.70653  Biso   1.000  Zn
  Zn8      1.0000 0.88041  0.70653  0.70653  Biso   1.000  Zn
  H1       1.0000 0.45520  0.45520  0.93520  Biso   1.000  H
  H2       1.0000 0.45520  0.45520  0.15440  Biso   1.000  H
  H3       1.0000 0.93520  0.15440  0.45520  Biso   1.000  H
  H4       1.0000 0.15440  0.93520  0.45520  Biso   1.000  H
  H5       1.0000 0.45520  0.93520  0.15440  Biso   1.000  H
  H6       1.0000 0.45520  0.15440  0.93520  Biso   1.000  H
  H7       1.0000 0.93520  0.45520  0.45520  Biso   1.000  H
  H8       1.0000 0.15440  0.45520  0.45520  Biso   1.000  H
  H9       1.0000 0.45520  0.15440  0.45520  Biso   1.000  H
  H10      1.0000 0.45520  0.93520  0.45520  Biso   1.000  H
  H11      1.0000 0.93520  0.45520  0.15440  Biso   1.000  H
  H12      1.0000 0.15440  0.45520  0.93520  Biso   1.000  H
  H13      1.0000 0.54480  0.54480  0.06480  Biso   1.000  H
  H14      1.0000 0.54480  0.54480  0.84560  Biso   1.000  H
  H15      1.0000 0.84560  0.06480  0.54480  Biso   1.000  H
  H16      1.0000 0.06480  0.84560  0.54480  Biso   1.000  H
  H17      1.0000 0.06480  0.54480  0.84560  Biso   1.000  H
  H18      1.0000 0.84560  0.54480  0.06480  Biso   1.000  H
  H19      1.0000 0.54480  0.06480  0.54480  Biso   1.000  H
  H20      1.0000 0.54480  0.84560  0.54480  Biso   1.000  H
  H21      1.0000 0.84560  0.54480  0.54480  Biso   1.000  H
  H22      1.0000 0.06480  0.54480  0.54480  Biso   1.000  H
  H23      1.0000 0.54480  0.06480  0.84560  Biso   1.000  H
  H24      1.0000 0.54480  0.84560  0.06480  Biso   1.000  H
  C1       1.0000 0.47338  0.47338  0.96214  Biso   1.000  C
  C2       1.0000 0.47338  0.47338  0.09110  Biso   1.000  C
  C3       1.0000 0.96214  0.09110  0.47338  Biso   1.000  C
  C4       1.0000 0.09110  0.96214  0.47338  Biso   1.000  C
  C5       1.0000 0.47338  0.96214  0.09110  Biso   1.000  C
  C6       1.0000 0.47338  0.09110  0.96214  Biso   1.000  C
  C7       1.0000 0.96214  0.47338  0.47338  Biso   1.000  C
  C8       1.0000 0.09110  0.47338  0.47338  Biso   1.000  C
  C9       1.0000 0.47338  0.09110  0.47338  Biso   1.000  C
  C10      1.0000 0.47338  0.96214  0.47338  Biso   1.000  C
  C11      1.0000 0.96214  0.47338  0.09110  Biso   1.000  C
  C12      1.0000 0.09110  0.47338  0.96214  Biso   1.000  C
  C13      1.0000 0.52662  0.52662  0.03786  Biso   1.000  C
  C14      1.0000 0.52662  0.52662  0.90890  Biso   1.000  C
  C15      1.0000 0.90890  0.03786  0.52662  Biso   1.000  C
  C16      1.0000 0.03786  0.90890  0.52662  Biso   1.000  C
  C17      1.0000 0.03786  0.52662  0.90890  Biso   1.000  C
  C18      1.0000 0.90890  0.52662  0.03786  Biso   1.000  C
  C19      1.0000 0.52662  0.03786  0.52662  Biso   1.000  C
  C20      1.0000 0.52662  0.90890  0.52662  Biso   1.000  C
  C21      1.0000 0.90890  0.52662  0.52662  Biso   1.000  C
  C22      1.0000 0.03786  0.52662  0.52662  Biso   1.000  C
  C23      1.0000 0.52662  0.03786  0.90890  Biso   1.000  C
  C24      1.0000 0.52662  0.90890  0.03786  Biso   1.000  C
  C25      1.0000 0.38853  0.38853  0.11147  Biso   1.000  C
  C26      1.0000 0.44615  0.44615  0.05385  Biso   1.000  C
  C27      1.0000 0.11147  0.11147  0.38853  Biso   1.000  C
  C28      1.0000 0.05385  0.05385  0.44615  Biso   1.000  C
  C29      1.0000 0.38853  0.11147  0.11147  Biso   1.000  C
  C30      1.0000 0.44615  0.05385  0.05385  Biso   1.000  C
  C31      1.0000 0.11147  0.38853  0.38853  Biso   1.000  C
  C32      1.0000 0.05385  0.44615  0.44615  Biso   1.000  C
  C33      1.0000 0.38853  0.11147  0.38853  Biso   1.000  C
  C34      1.0000 0.44615  0.05385  0.44615  Biso   1.000  C
  C35      1.0000 0.11147  0.38853  0.11147  Biso   1.000  C
  C36      1.0000 0.05385  0.44615  0.05385  Biso   1.000  C
  C37      1.0000 0.61147  0.61147  0.88853  Biso   1.000  C
  C38      1.0000 0.55385  0.55385  0.94615  Biso   1.000  C
  C39      1.0000 0.88853  0.88853  0.61147  Biso   1.000  C
  C40      1.0000 0.94615  0.94615  0.55385  Biso   1.000  C
  C41      1.0000 0.88853  0.61147  0.88853  Biso   1.000  C
  C42      1.0000 0.94615  0.55385  0.94615  Biso   1.000  C
  C43      1.0000 0.61147  0.88853  0.61147  Biso   1.000  C
  C44      1.0000 0.55385  0.94615  0.55385  Biso   1.000  C
  C45      1.0000 0.88853  0.61147  0.61147  Biso   1.000  C
  C46      1.0000 0.94615  0.55385  0.55385  Biso   1.000  C
  C47      1.0000 0.61147  0.88853  0.88853  Biso   1.000  C
  C48      1.0000 0.55385  0.94615  0.94615  Biso   1.000  C
  O1       1.0000 0.25000  0.25000  0.25000  Biso   1.000  O
  O2       1.0000 0.75000  0.75000  0.75000  Biso   1.000  O
  O3       1.0000 0.36624  0.36624  0.07286  Biso   1.000  O
  O4       1.0000 0.36624  0.36624  0.19466  Biso   1.000  O
  O5       1.0000 0.07286  0.19466  0.36624  Biso   1.000  O
  O6       1.0000 0.19466  0.07286  0.36624  Biso   1.000  O
  O7       1.0000 0.36624  0.07286  0.19466  Biso   1.000  O
  O8       1.0000 0.36624  0.19466  0.07286  Biso   1.000  O
  O9       1.0000 0.07286  0.36624  0.36624  Biso   1.000  O
  O10      1.0000 0.19466  0.36624  0.36624  Biso   1.000  O
  O11      1.0000 0.36624  0.19466  0.36624  Biso   1.000  O
  O12      1.0000 0.36624  0.07286  0.36624  Biso   1.000  O
  O13      1.0000 0.07286  0.36624  0.19466  Biso   1.000  O
  O14      1.0000 0.19466  0.36624  0.07286  Biso   1.000  O
  O15      1.0000 0.63376  0.63376  0.92714  Biso   1.000  O
  O16      1.0000 0.63376  0.63376  0.80534  Biso   1.000  O
  O17      1.0000 0.80534  0.92714  0.63376  Biso   1.000  O
  O18      1.0000 0.92714  0.80534  0.63376  Biso   1.000  O
  O19      1.0000 0.92714  0.63376  0.80534  Biso   1.000  O
  O20      1.0000 0.80534  0.63376  0.92714  Biso   1.000  O
  O21      1.0000 0.63376  0.92714  0.63376  Biso   1.000  O
  O22      1.0000 0.63376  0.80534  0.63376  Biso   1.000  O
  O23      1.0000 0.80534  0.63376  0.63376  Biso   1.000  O
  O24      1.0000 0.92714  0.63376  0.63376  Biso   1.000  O
  O25      1.0000 0.63376  0.92714  0.80534  Biso   1.000  O
  O26      1.0000 0.63376  0.80534  0.92714  Biso   1.000  O
  Zn9      1.0000 0.16412  0.00000  0.00000  Biso   1.000  Zn
  Zn10     1.0000 0.57717  0.58683  0.41331  Biso   1.000  Zn
  Zn11     1.0000 0.57717  0.41220  0.41331  Biso   1.000  Zn
  Zn12     1.0000 0.16412  0.82538  0.00000  Biso   1.000  Zn
  Zn13     1.0000 0.16367  0.00034  0.82516  Biso   1.000  Zn
  Zn14     1.0000 0.98910  0.00015  0.00010  Biso   1.000  Zn
  Zn15     1.0000 0.57762  0.41186  0.58815  Biso   1.000  Zn
  Zn16     1.0000 0.75219  0.41205  0.41321  Biso   1.000  Zn
  H25      1.0000 0.32846  0.64455  0.85664  Biso   1.000  H
  H26      1.0000 0.32067  0.86051  0.64524  Biso   1.000  H
  H27      1.0000 0.02502  0.64563  0.15991  Biso   1.000  H
  H28      1.0000 0.80636  0.85799  0.16221  Biso   1.000  H
  H29      1.0000 0.32927  0.85999  0.15742  Biso   1.000  H
  H30      1.0000 0.41284  0.25234  0.55667  Biso   1.000  H
  H31      1.0000 0.42061  0.24913  0.76807  Biso   1.000  H
  H32      1.0000 0.71627  0.25326  0.25340  Biso   1.000  H
  H33      1.0000 0.93493  0.24926  0.25110  Biso   1.000  H
  H34      1.0000 0.41202  0.76937  0.25590  Biso   1.000  H
  H35      1.0000 0.41283  0.76766  0.55667  Biso   1.000  H
  H36      1.0000 0.42061  0.55169  0.76807  Biso   1.000  H
  H37      1.0000 0.71627  0.76657  0.25340  Biso   1.000  H
  H38      1.0000 0.93493  0.55421  0.25110  Biso   1.000  H
  H39      1.0000 0.41202  0.55221  0.25590  Biso   1.000  H
  H40      1.0000 0.32845  0.15986  0.85664  Biso   1.000  H
  H41      1.0000 0.32068  0.16307  0.64524  Biso   1.000  H
  H42      1.0000 0.02502  0.15895  0.15991  Biso   1.000  H
  H43      1.0000 0.80636  0.16294  0.16221  Biso   1.000  H
  H44      1.0000 0.32927  0.64283  0.15742  Biso   1.000  H
  H45      1.0000 0.80725  0.16176  0.85874  Biso   1.000  H
  H46      1.0000 0.02082  0.16287  0.64295  Biso   1.000  H
  H47      1.0000 0.93404  0.25044  0.55457  Biso   1.000  H
  H48      1.0000 0.72047  0.24933  0.77037  Biso   1.000  H
  C49      1.0000 0.25827  0.81687  0.82029  Biso   1.000  C
  C50      1.0000 0.31778  0.75886  0.75918  Biso   1.000  C
  C51      1.0000 0.34623  0.67021  0.79453  Biso   1.000  C
  C52      1.0000 0.34005  0.79850  0.67121  Biso   1.000  C
  C53      1.0000 0.97960  0.82005  0.09700  Biso   1.000  C
  C54      1.0000 0.92558  0.76163  0.15222  Biso   1.000  C
  C55      1.0000 0.96291  0.67179  0.17789  Biso   1.000  C
  C56      1.0000 0.83402  0.79608  0.17969  Biso   1.000  C
  C57      1.0000 0.34514  0.79798  0.17749  Biso   1.000  C
  C58      1.0000 0.48301  0.31814  0.59302  Biso   1.000  C
  C59      1.0000 0.42350  0.25853  0.65413  Biso   1.000  C
  C60      1.0000 0.39506  0.23367  0.61878  Biso   1.000  C
  C61      1.0000 0.40124  0.23246  0.74211  Biso   1.000  C
  C62      1.0000 0.76169  0.31935  0.31631  Biso   1.000  C
  C63      1.0000 0.81570  0.26214  0.26109  Biso   1.000  C
  C64      1.0000 0.77838  0.23528  0.23543  Biso   1.000  C
  C65      1.0000 0.90727  0.23249  0.23363  Biso   1.000  C
  C66      1.0000 0.39614  0.74331  0.23582  Biso   1.000  C
  C67      1.0000 0.48301  0.59533  0.59302  Biso   1.000  C
  C68      1.0000 0.42351  0.65334  0.65413  Biso   1.000  C
  C69      1.0000 0.39506  0.74199  0.61878  Biso   1.000  C
  C70      1.0000 0.40124  0.61370  0.74211  Biso   1.000  C
  C71      1.0000 0.76169  0.59215  0.31631  Biso   1.000  C
  C72      1.0000 0.81571  0.65057  0.26109  Biso   1.000  C
  C73      1.0000 0.77838  0.74041  0.23543  Biso   1.000  C
  C74      1.0000 0.90727  0.61612  0.23363  Biso   1.000  C
  C75      1.0000 0.39615  0.61422  0.23582  Biso   1.000  C
  C76      1.0000 0.25828  0.09406  0.82029  Biso   1.000  C
  C77      1.0000 0.31779  0.15368  0.75918  Biso   1.000  C
  C78      1.0000 0.34622  0.17854  0.79453  Biso   1.000  C
  C79      1.0000 0.34005  0.17974  0.67121  Biso   1.000  C
  C80      1.0000 0.97960  0.09285  0.09700  Biso   1.000  C
  C81      1.0000 0.92558  0.15006  0.15222  Biso   1.000  C
  C82      1.0000 0.96291  0.17692  0.17789  Biso   1.000  C
  C83      1.0000 0.83402  0.17972  0.17969  Biso   1.000  C
  C84      1.0000 0.34515  0.66889  0.17749  Biso   1.000  C
  C85      1.0000 0.98628  0.09486  0.81350  Biso   1.000  C
  C86      1.0000 0.92417  0.15198  0.76138  Biso   1.000  C
  C87      1.0000 0.83440  0.17914  0.79683  Biso   1.000  C
  C88      1.0000 0.95881  0.18034  0.67001  Biso   1.000  C
  C89      1.0000 0.25679  0.82185  0.08901  Biso   1.000  C
  C90      1.0000 0.31670  0.76024  0.15232  Biso   1.000  C
  C91      1.0000 0.75501  0.31734  0.59981  Biso   1.000  C
  C92      1.0000 0.81712  0.26022  0.65193  Biso   1.000  C
  C93      1.0000 0.90689  0.23307  0.61648  Biso   1.000  C
  C94      1.0000 0.78248  0.23186  0.74330  Biso   1.000  C
  C95      1.0000 0.48450  0.59035  0.32430  Biso   1.000  C
  C96      1.0000 0.42458  0.65197  0.26099  Biso   1.000  C
  O27      1.0000 0.23820  0.90215  0.77446  Biso   1.000  O
  O28      1.0000 0.23951  0.77303  0.90438  Biso   1.000  O
  O29      1.0000 0.93976  0.90313  0.07054  Biso   1.000  O
  O30      1.0000 0.06577  0.77602  0.07453  Biso   1.000  O
  O31      1.0000 0.23772  0.90413  0.07174  Biso   1.000  O
  O32      1.0000 0.50309  0.33751  0.63885  Biso   1.000  O
  O33      1.0000 0.50178  0.33961  0.50894  Biso   1.000  O
  O34      1.0000 0.80153  0.33613  0.34277  Biso   1.000  O
  O35      1.0000 0.67552  0.33902  0.33878  Biso   1.000  O
  O36      1.0000 0.50357  0.63629  0.34157  Biso   1.000  O
  O37      1.0000 0.50309  0.51006  0.63885  Biso   1.000  O
  O38      1.0000 0.50178  0.63917  0.50894  Biso   1.000  O
  O39      1.0000 0.80153  0.50907  0.34277  Biso   1.000  O
  O40      1.0000 0.67552  0.63619  0.33878  Biso   1.000  O
  O41      1.0000 0.50357  0.50808  0.34157  Biso   1.000  O
  O42      1.0000 0.23820  0.07469  0.77446  Biso   1.000  O
  O43      1.0000 0.23951  0.07259  0.90438  Biso   1.000  O
  O44      1.0000 0.93976  0.07607  0.07054  Biso   1.000  O
  O45      1.0000 0.06577  0.07318  0.07453  Biso   1.000  O
  O46      1.0000 0.23772  0.77592  0.07174  Biso   1.000  O
  O47      1.0000 0.12099  0.95626  0.95600  Biso   1.000  O
  O48      1.0000 0.06696  0.07369  0.77516  Biso   1.000  O
  O49      1.0000 0.94115  0.07598  0.89639  Biso   1.000  O
  O50      1.0000 0.62030  0.45595  0.45731  Biso   1.000  O
  O51      1.0000 0.67433  0.33851  0.63815  Biso   1.000  O
