data_image0
_cell_length_a       18.3017
_cell_length_b       18.3017
_cell_length_c       18.3017
_cell_angle_alpha    60
_cell_angle_beta     60
_cell_angle_gamma    60

_symmetry_space_group_name_H-M    "P 1"
_symmetry_int_tables_number       1

loop_
  _symmetry_equiv_pos_as_xyz
  'x, y, z'

loop_
  _atom_site_label
  _atom_site_occupancy
  _atom_site_fract_x
  _atom_site_fract_y
  _atom_site_fract_z
  _atom_site_thermal_displace_type
  _atom_site_B_iso_or_equiv
  _atom_site_type_symbol
  C1       1.0000 0.29342  0.29343  0.11972  Biso   1.000  C
  C2       1.0000 0.29343  0.29342  0.29343  Biso   1.000  C
  C3       1.0000 0.11972  0.29343  0.29342  Biso   1.000  C
  C4       1.0000 0.29343  0.11972  0.29343  Biso   1.000  C
  C5       1.0000 0.70657  0.70658  0.88028  Biso   1.000  C
  C6       1.0000 0.70657  0.70658  0.70657  Biso   1.000  C
  C7       1.0000 0.70658  0.88028  0.70657  Biso   1.000  C
  C8       1.0000 0.88029  0.70657  0.70657  Biso   1.000  C
  C9       1.0000 0.45510  0.45510  0.93470  Biso   1.000  C
  C10      1.0000 0.45510  0.45510  0.15510  Biso   1.000  C
  C11      1.0000 0.93470  0.15510  0.45510  Biso   1.000  C
  C12      1.0000 0.15510  0.93470  0.45510  Biso   1.000  C
  C13      1.0000 0.45510  0.93470  0.15510  Biso   1.000  C
  C14      1.0000 0.45510  0.15510  0.93470  Biso   1.000  C
  C15      1.0000 0.93470  0.45510  0.45510  Biso   1.000  C
  C16      1.0000 0.15510  0.45510  0.45510  Biso   1.000  C
  C17      1.0000 0.45510  0.15510  0.45510  Biso   1.000  C
  C18      1.0000 0.45510  0.93470  0.45510  Biso   1.000  C
  C19      1.0000 0.93470  0.45510  0.15510  Biso   1.000  C
  C20      1.0000 0.15510  0.45510  0.93470  Biso   1.000  C
  C21      1.0000 0.54490  0.54490  0.06530  Biso   1.000  C
  C22      1.0000 0.54490  0.54490  0.84490  Biso   1.000  C
  C23      1.0000 0.84490  0.06530  0.54490  Biso   1.000  C
  C24      1.0000 0.06530  0.84490  0.54490  Biso   1.000  C
  C25      1.0000 0.06530  0.54490  0.84490  Biso   1.000  C
  C26      1.0000 0.84490  0.54490  0.06530  Biso   1.000  C
  C27      1.0000 0.54490  0.06530  0.54490  Biso   1.000  C
  C28      1.0000 0.54490  0.84490  0.54490  Biso   1.000  C
  C29      1.0000 0.84490  0.54490  0.54490  Biso   1.000  C
  C30      1.0000 0.06530  0.54490  0.54490  Biso   1.000  C
  C31      1.0000 0.54490  0.06530  0.84490  Biso   1.000  C
  C32      1.0000 0.54490  0.84490  0.06530  Biso   1.000  C
  C33      1.0000 0.47334  0.47334  0.96156  Biso   1.000  C
  C34      1.0000 0.47334  0.47334  0.09176  Biso   1.000  C
  C35      1.0000 0.96156  0.09176  0.47334  Biso   1.000  C
  C36      1.0000 0.09176  0.96156  0.47334  Biso   1.000  C
  C37      1.0000 0.47334  0.96156  0.09176  Biso   1.000  C
  C38      1.0000 0.47334  0.09176  0.96156  Biso   1.000  C
  C39      1.0000 0.96156  0.47334  0.47334  Biso   1.000  C
  C40      1.0000 0.09176  0.47334  0.47334  Biso   1.000  C
  C41      1.0000 0.47334  0.09176  0.47334  Biso   1.000  C
  C42      1.0000 0.47334  0.96156  0.47334  Biso   1.000  C
  C43      1.0000 0.96156  0.47334  0.09176  Biso   1.000  C
  C44      1.0000 0.09176  0.47334  0.96156  Biso   1.000  C
  C45      1.0000 0.52666  0.52666  0.03844  Biso   1.000  C
  C46      1.0000 0.52666  0.52666  0.90824  Biso   1.000  C
  C47      1.0000 0.90824  0.03844  0.52666  Biso   1.000  C
  C48      1.0000 0.03844  0.90824  0.52666  Biso   1.000  C
  C49      1.0000 0.03844  0.52666  0.90824  Biso   1.000  C
  C50      1.0000 0.90824  0.52666  0.03844  Biso   1.000  C
  C51      1.0000 0.52666  0.03844  0.52666  Biso   1.000  C
  C52      1.0000 0.52666  0.90824  0.52666  Biso   1.000  C
  C53      1.0000 0.90824  0.52666  0.52666  Biso   1.000  C
  C54      1.0000 0.03844  0.52666  0.52666  Biso   1.000  C
  C55      1.0000 0.52666  0.03844  0.90824  Biso   1.000  C
  C56      1.0000 0.52666  0.90824  0.03844  Biso   1.000  C
  C57      1.0000 0.38843  0.38843  0.11157  Biso   1.000  C
  C58      1.0000 0.44642  0.44642  0.05358  Biso   1.000  C
  C59      1.0000 0.11157  0.11157  0.38843  Biso   1.000  C
  C60      1.0000 0.05358  0.05358  0.44642  Biso   1.000  C
  C61      1.0000 0.38843  0.11157  0.11157  Biso   1.000  C
  C62      1.0000 0.44642  0.05358  0.05358  Biso   1.000  C
  C63      1.0000 0.11157  0.38843  0.38843  Biso   1.000  C
  C64      1.0000 0.05358  0.44642  0.44642  Biso   1.000  C
  C65      1.0000 0.38843  0.11157  0.38843  Biso   1.000  C
  C66      1.0000 0.44642  0.05358  0.44642  Biso   1.000  C
  C67      1.0000 0.11157  0.38843  0.11157  Biso   1.000  C
  C68      1.0000 0.05358  0.44642  0.05358  Biso   1.000  C
  C69      1.0000 0.61157  0.61157  0.88843  Biso   1.000  C
  C70      1.0000 0.55358  0.55358  0.94642  Biso   1.000  C
  C71      1.0000 0.88843  0.88843  0.61157  Biso   1.000  C
  C72      1.0000 0.94642  0.94642  0.55358  Biso   1.000  C
  C73      1.0000 0.88843  0.61157  0.88843  Biso   1.000  C
  C74      1.0000 0.94642  0.55358  0.94642  Biso   1.000  C
  C75      1.0000 0.61157  0.88843  0.61157  Biso   1.000  C
  C76      1.0000 0.55358  0.94642  0.55358  Biso   1.000  C
  C77      1.0000 0.88843  0.61157  0.61157  Biso   1.000  C
  C78      1.0000 0.94642  0.55358  0.55358  Biso   1.000  C
  C79      1.0000 0.61157  0.88843  0.88843  Biso   1.000  C
  C80      1.0000 0.55358  0.94642  0.94642  Biso   1.000  C
  C81      1.0000 0.25000  0.25000  0.25000  Biso   1.000  C
  C82      1.0000 0.75000  0.75000  0.75000  Biso   1.000  C
  C83      1.0000 0.36609  0.36609  0.07295  Biso   1.000  C
  C84      1.0000 0.36609  0.36609  0.19487  Biso   1.000  C
  C85      1.0000 0.07295  0.19487  0.36609  Biso   1.000  C
  C86      1.0000 0.19487  0.07295  0.36609  Biso   1.000  C
  C87      1.0000 0.36609  0.07295  0.19487  Biso   1.000  C
  C88      1.0000 0.36609  0.19487  0.07295  Biso   1.000  C
  C89      1.0000 0.07295  0.36609  0.36609  Biso   1.000  C
  C90      1.0000 0.19487  0.36609  0.36609  Biso   1.000  C
  C91      1.0000 0.36609  0.19487  0.36609  Biso   1.000  C
  C92      1.0000 0.36609  0.07295  0.36609  Biso   1.000  C
  C93      1.0000 0.07295  0.36609  0.19487  Biso   1.000  C
  C94      1.0000 0.19487  0.36609  0.07295  Biso   1.000  C
  C95      1.0000 0.63391  0.63391  0.92705  Biso   1.000  C
  C96      1.0000 0.63391  0.63391  0.80513  Biso   1.000  C
  C97      1.0000 0.80513  0.92705  0.63391  Biso   1.000  C
  C98      1.0000 0.92705  0.80513  0.63391  Biso   1.000  C
  C99      1.0000 0.92705  0.63391  0.80513  Biso   1.000  C
  C100     1.0000 0.80513  0.63391  0.92705  Biso   1.000  C
  C101     1.0000 0.63391  0.92705  0.63391  Biso   1.000  C
  C102     1.0000 0.63391  0.80513  0.63391  Biso   1.000  C
  C103     1.0000 0.80513  0.63391  0.63391  Biso   1.000  C
  C104     1.0000 0.92705  0.63391  0.63391  Biso   1.000  C
  C105     1.0000 0.63391  0.92705  0.80513  Biso   1.000  C
  C106     1.0000 0.63391  0.80513  0.92705  Biso   1.000  C
  O1       1.0000 0.68428  0.34859  0.46844  Biso   1.000  O
  O2       1.0000 0.50302  0.34859  0.64969  Biso   1.000  O
  O3       1.0000 0.50302  0.52985  0.46844  Biso   1.000  O
  O4       1.0000 0.50302  0.34859  0.46844  Biso   1.000  O
  O5       1.0000 0.08404  0.93921  0.88744  Biso   1.000  O
  O6       1.0000 0.91242  0.93921  0.05906  Biso   1.000  O
  O7       1.0000 0.08404  0.93921  0.05906  Biso   1.000  O
  O8       1.0000 0.08404  0.76760  0.05906  Biso   1.000  O
  O9       1.0000 0.94120  0.10201  0.70467  Biso   1.000  O
  O10      1.0000 0.72966  0.10201  0.91622  Biso   1.000  O
  O11      1.0000 0.24684  0.79638  0.22186  Biso   1.000  O
  O12      1.0000 0.24684  0.58483  0.22186  Biso   1.000  O
  O13      1.0000 0.24684  0.58483  0.91622  Biso   1.000  O
  O14      1.0000 0.24684  0.79638  0.70467  Biso   1.000  O
  O15      1.0000 0.94120  0.10201  0.22186  Biso   1.000  O
  O16      1.0000 0.72966  0.10201  0.22186  Biso   1.000  O
  O17      1.0000 0.72966  0.79638  0.22186  Biso   1.000  O
  O18      1.0000 0.94120  0.58483  0.22186  Biso   1.000  O
  O19      1.0000 0.24684  0.10201  0.91622  Biso   1.000  O
  O20      1.0000 0.24684  0.10201  0.70467  Biso   1.000  O
  O21      1.0000 0.83157  0.16867  0.68100  Biso   1.000  O
  O22      1.0000 0.87950  0.11855  0.73329  Biso   1.000  O
  O23      1.0000 0.70598  0.16867  0.80658  Biso   1.000  O
  O24      1.0000 0.75828  0.11855  0.85452  Biso   1.000  O
  O25      1.0000 0.31350  0.68674  0.28851  Biso   1.000  O
  O26      1.0000 0.26338  0.73468  0.23840  Biso   1.000  O
  O27      1.0000 0.31350  0.56116  0.28851  Biso   1.000  O
  O28      1.0000 0.26338  0.61345  0.23840  Biso   1.000  O
  O29      1.0000 0.31350  0.56116  0.80658  Biso   1.000  O
  O30      1.0000 0.26338  0.61345  0.85452  Biso   1.000  O
  O31      1.0000 0.31350  0.68674  0.68100  Biso   1.000  O
  O32      1.0000 0.26338  0.73467  0.73329  Biso   1.000  O
  O33      1.0000 0.83157  0.16867  0.28851  Biso   1.000  O
  O34      1.0000 0.87950  0.11855  0.23840  Biso   1.000  O
  O35      1.0000 0.70598  0.16867  0.28851  Biso   1.000  O
  O36      1.0000 0.75828  0.11855  0.23840  Biso   1.000  O
  O37      1.0000 0.70598  0.68674  0.28851  Biso   1.000  O
  O38      1.0000 0.75828  0.73467  0.23840  Biso   1.000  O
  O39      1.0000 0.83157  0.56116  0.28851  Biso   1.000  O
  O40      1.0000 0.87950  0.61345  0.23840  Biso   1.000  O
  O41      1.0000 0.31350  0.16867  0.80658  Biso   1.000  O
  O42      1.0000 0.26338  0.11855  0.85452  Biso   1.000  O
  O43      1.0000 0.31350  0.16867  0.68100  Biso   1.000  O
  O44      1.0000 0.26338  0.11855  0.73329  Biso   1.000  O
  O45      1.0000 0.68113  0.25632  0.65614  Biso   1.000  O
  O46      1.0000 0.74451  0.19293  0.71953  Biso   1.000  O
  O47      1.0000 0.90090  0.03655  0.87591  Biso   1.000  O
  O48      1.0000 0.85088  0.08656  0.82590  Biso   1.000  O
  O49      1.0000 0.40115  0.53630  0.37616  Biso   1.000  O
  O50      1.0000 0.33776  0.59968  0.31278  Biso   1.000  O
  O51      1.0000 0.18138  0.75607  0.15639  Biso   1.000  O
  O52      1.0000 0.23139  0.70605  0.20641  Biso   1.000  O
  O53      1.0000 0.40115  0.53630  0.65614  Biso   1.000  O
  O54      1.0000 0.33776  0.59968  0.71953  Biso   1.000  O
  O55      1.0000 0.18138  0.75607  0.87591  Biso   1.000  O
  O56      1.0000 0.23139  0.70605  0.82590  Biso   1.000  O
  O57      1.0000 0.68113  0.25632  0.37616  Biso   1.000  O
  O58      1.0000 0.74451  0.19293  0.31278  Biso   1.000  O
  O59      1.0000 0.90090  0.03655  0.15639  Biso   1.000  O
  O60      1.0000 0.85088  0.08656  0.20641  Biso   1.000  O
  O61      1.0000 0.68113  0.53630  0.37616  Biso   1.000  O
  O62      1.0000 0.74451  0.59968  0.31278  Biso   1.000  O
  O63      1.0000 0.90090  0.75607  0.15639  Biso   1.000  O
  O64      1.0000 0.85088  0.70605  0.20641  Biso   1.000  O
  O65      1.0000 0.40115  0.25632  0.65614  Biso   1.000  O
  O66      1.0000 0.33776  0.19293  0.71953  Biso   1.000  O
  O67      1.0000 0.18138  0.03655  0.87591  Biso   1.000  O
  O68      1.0000 0.23139  0.08656  0.82590  Biso   1.000  O
  O69      1.0000 0.04114  0.89631  0.01615  Biso   1.000  O
  O70      1.0000 0.55554  0.39151  0.51135  Biso   1.000  O
  O71      1.0000 0.71955  0.27811  0.57414  Biso   1.000  O
  O72      1.0000 0.98538  0.01189  0.84075  Biso   1.000  O
  O73      1.0000 0.59912  0.27811  0.69457  Biso   1.000  O
  O74      1.0000 0.86574  0.01189  0.96039  Biso   1.000  O
  O75      1.0000 0.42294  0.57473  0.39795  Biso   1.000  O
  O76      1.0000 0.15672  0.84055  0.13173  Biso   1.000  O
  O77      1.0000 0.42294  0.45429  0.39795  Biso   1.000  O
  O78      1.0000 0.15672  0.72091  0.13173  Biso   1.000  O
  O79      1.0000 0.42294  0.45429  0.69457  Biso   1.000  O
  O80      1.0000 0.15672  0.72091  0.96039  Biso   1.000  O
  O81      1.0000 0.42294  0.57473  0.57414  Biso   1.000  O
  O82      1.0000 0.15672  0.84055  0.84075  Biso   1.000  O
  O83      1.0000 0.71955  0.27811  0.39795  Biso   1.000  O
  O84      1.0000 0.98538  0.01189  0.13173  Biso   1.000  O
  O85      1.0000 0.59912  0.27811  0.39795  Biso   1.000  O
  O86      1.0000 0.86574  0.01189  0.13173  Biso   1.000  O
  O87      1.0000 0.59912  0.57473  0.39795  Biso   1.000  O
  O88      1.0000 0.86574  0.84055  0.13173  Biso   1.000  O
  O89      1.0000 0.71955  0.45429  0.39795  Biso   1.000  O
  O90      1.0000 0.98538  0.72091  0.13173  Biso   1.000  O
  O91      1.0000 0.42294  0.27811  0.69457  Biso   1.000  O
  O92      1.0000 0.15672  0.01189  0.96039  Biso   1.000  O
  O93      1.0000 0.42294  0.27811  0.57414  Biso   1.000  O
