data_image0
_cell_length_a       18.2704
_cell_length_b       18.2704
_cell_length_c       18.2704
_cell_angle_alpha    60
_cell_angle_beta     60
_cell_angle_gamma    60

_symmetry_space_group_name_H-M    "P 1"
_symmetry_int_tables_number       1

loop_
  _symmetry_equiv_pos_as_xyz
  'x, y, z'

loop_
  _atom_site_label
  _atom_site_occupancy
  _atom_site_fract_x
  _atom_site_fract_y
  _atom_site_fract_z
  _atom_site_thermal_displace_type
  _atom_site_B_iso_or_equiv
  _atom_site_type_symbol
  C1       1.0000 0.29350  0.29349  0.11952  Biso   1.000  C
  C2       1.0000 0.29350  0.29349  0.29349  Biso   1.000  C
  C3       1.0000 0.11953  0.29349  0.29349  Biso   1.000  C
  C4       1.0000 0.29350  0.11952  0.29349  Biso   1.000  C
  C5       1.0000 0.70650  0.70651  0.88048  Biso   1.000  C
  C6       1.0000 0.70650  0.70651  0.70651  Biso   1.000  C
  C7       1.0000 0.70650  0.88048  0.70651  Biso   1.000  C
  C8       1.0000 0.88047  0.70651  0.70651  Biso   1.000  C
  C9       1.0000 0.45540  0.45540  0.93560  Biso   1.000  C
  C10      1.0000 0.45540  0.45540  0.15360  Biso   1.000  C
  C11      1.0000 0.93560  0.15360  0.45540  Biso   1.000  C
  C12      1.0000 0.15360  0.93560  0.45540  Biso   1.000  C
  C13      1.0000 0.45540  0.93560  0.15360  Biso   1.000  C
  C14      1.0000 0.45540  0.15360  0.93560  Biso   1.000  C
  C15      1.0000 0.93560  0.45540  0.45540  Biso   1.000  C
  C16      1.0000 0.15360  0.45540  0.45540  Biso   1.000  C
  C17      1.0000 0.45540  0.15360  0.45540  Biso   1.000  C
  C18      1.0000 0.45540  0.93560  0.45540  Biso   1.000  C
  C19      1.0000 0.93560  0.45540  0.15360  Biso   1.000  C
  C20      1.0000 0.15360  0.45540  0.93560  Biso   1.000  C
  C21      1.0000 0.54460  0.54460  0.06440  Biso   1.000  C
  C22      1.0000 0.54460  0.54460  0.84640  Biso   1.000  C
  C23      1.0000 0.84640  0.06440  0.54460  Biso   1.000  C
  C24      1.0000 0.06440  0.84640  0.54460  Biso   1.000  C
  C25      1.0000 0.06440  0.54460  0.84640  Biso   1.000  C
  C26      1.0000 0.84640  0.54460  0.06440  Biso   1.000  C
  C27      1.0000 0.54460  0.06440  0.54460  Biso   1.000  C
  C28      1.0000 0.54460  0.84640  0.54460  Biso   1.000  C
  C29      1.0000 0.84640  0.54460  0.54460  Biso   1.000  C
  C30      1.0000 0.06440  0.54460  0.54460  Biso   1.000  C
  C31      1.0000 0.54460  0.06440  0.84640  Biso   1.000  C
  C32      1.0000 0.54460  0.84640  0.06440  Biso   1.000  C
  C33      1.0000 0.47338  0.47338  0.96238  Biso   1.000  C
  C34      1.0000 0.47338  0.47338  0.09086  Biso   1.000  C
  C35      1.0000 0.96238  0.09086  0.47338  Biso   1.000  C
  C36      1.0000 0.09086  0.96238  0.47338  Biso   1.000  C
  C37      1.0000 0.47338  0.96238  0.09086  Biso   1.000  C
  C38      1.0000 0.47338  0.09086  0.96238  Biso   1.000  C
  C39      1.0000 0.96238  0.47338  0.47338  Biso   1.000  C
  C40      1.0000 0.09086  0.47338  0.47338  Biso   1.000  C
  C41      1.0000 0.47338  0.09086  0.47338  Biso   1.000  C
  C42      1.0000 0.47338  0.96238  0.47338  Biso   1.000  C
  C43      1.0000 0.96238  0.47338  0.09086  Biso   1.000  C
  C44      1.0000 0.09086  0.47338  0.96238  Biso   1.000  C
  C45      1.0000 0.52662  0.52662  0.03762  Biso   1.000  C
  C46      1.0000 0.52662  0.52662  0.90914  Biso   1.000  C
  C47      1.0000 0.90914  0.03762  0.52662  Biso   1.000  C
  C48      1.0000 0.03762  0.90914  0.52662  Biso   1.000  C
  C49      1.0000 0.03762  0.52662  0.90914  Biso   1.000  C
  C50      1.0000 0.90914  0.52662  0.03762  Biso   1.000  C
  C51      1.0000 0.52662  0.03762  0.52662  Biso   1.000  C
  C52      1.0000 0.52662  0.90914  0.52662  Biso   1.000  C
  C53      1.0000 0.90914  0.52662  0.52662  Biso   1.000  C
  C54      1.0000 0.03762  0.52662  0.52662  Biso   1.000  C
  C55      1.0000 0.52662  0.03762  0.90914  Biso   1.000  C
  C56      1.0000 0.52662  0.90914  0.03762  Biso   1.000  C
  C57      1.0000 0.38861  0.38861  0.11139  Biso   1.000  C
  C58      1.0000 0.44619  0.44619  0.05381  Biso   1.000  C
  C59      1.0000 0.11139  0.11139  0.38861  Biso   1.000  C
  C60      1.0000 0.05381  0.05381  0.44619  Biso   1.000  C
  C61      1.0000 0.38861  0.11139  0.11139  Biso   1.000  C
  C62      1.0000 0.44619  0.05381  0.05381  Biso   1.000  C
  C63      1.0000 0.11139  0.38861  0.38861  Biso   1.000  C
  C64      1.0000 0.05381  0.44619  0.44619  Biso   1.000  C
  C65      1.0000 0.38861  0.11139  0.38861  Biso   1.000  C
  C66      1.0000 0.44619  0.05381  0.44619  Biso   1.000  C
  C67      1.0000 0.11139  0.38861  0.11139  Biso   1.000  C
  C68      1.0000 0.05381  0.44619  0.05381  Biso   1.000  C
  C69      1.0000 0.61139  0.61139  0.88861  Biso   1.000  C
  C70      1.0000 0.55381  0.55381  0.94619  Biso   1.000  C
  C71      1.0000 0.88861  0.88861  0.61139  Biso   1.000  C
  C72      1.0000 0.94619  0.94619  0.55381  Biso   1.000  C
  C73      1.0000 0.88861  0.61139  0.88861  Biso   1.000  C
  C74      1.0000 0.94619  0.55381  0.94619  Biso   1.000  C
  C75      1.0000 0.61139  0.88861  0.61139  Biso   1.000  C
  C76      1.0000 0.55381  0.94619  0.55381  Biso   1.000  C
  C77      1.0000 0.88861  0.61139  0.61139  Biso   1.000  C
  C78      1.0000 0.94619  0.55381  0.55381  Biso   1.000  C
  C79      1.0000 0.61139  0.88861  0.88861  Biso   1.000  C
  C80      1.0000 0.55381  0.94619  0.94619  Biso   1.000  C
  C81      1.0000 0.25000  0.25000  0.25000  Biso   1.000  C
  C82      1.0000 0.75000  0.75000  0.75000  Biso   1.000  C
  C83      1.0000 0.36607  0.36607  0.07299  Biso   1.000  C
  C84      1.0000 0.36607  0.36607  0.19487  Biso   1.000  C
  C85      1.0000 0.07299  0.19487  0.36607  Biso   1.000  C
  C86      1.0000 0.19487  0.07299  0.36607  Biso   1.000  C
  C87      1.0000 0.36607  0.07299  0.19487  Biso   1.000  C
  C88      1.0000 0.36607  0.19487  0.07299  Biso   1.000  C
  C89      1.0000 0.07299  0.36607  0.36607  Biso   1.000  C
  C90      1.0000 0.19487  0.36607  0.36607  Biso   1.000  C
  C91      1.0000 0.36607  0.19487  0.36607  Biso   1.000  C
  C92      1.0000 0.36607  0.07299  0.36607  Biso   1.000  C
  C93      1.0000 0.07299  0.36607  0.19487  Biso   1.000  C
  C94      1.0000 0.19487  0.36607  0.07299  Biso   1.000  C
  C95      1.0000 0.63393  0.63393  0.92701  Biso   1.000  C
  C96      1.0000 0.63393  0.63393  0.80513  Biso   1.000  C
  C97      1.0000 0.80513  0.92701  0.63393  Biso   1.000  C
  C98      1.0000 0.92701  0.80513  0.63393  Biso   1.000  C
  C99      1.0000 0.92701  0.63393  0.80513  Biso   1.000  C
  C100     1.0000 0.80513  0.63393  0.92701  Biso   1.000  C
  C101     1.0000 0.63393  0.92701  0.63393  Biso   1.000  C
  C102     1.0000 0.63393  0.80513  0.63393  Biso   1.000  C
  C103     1.0000 0.80513  0.63393  0.63393  Biso   1.000  C
  C104     1.0000 0.92701  0.63393  0.63393  Biso   1.000  C
  C105     1.0000 0.63393  0.92701  0.80513  Biso   1.000  C
  C106     1.0000 0.63393  0.80513  0.92701  Biso   1.000  C
  O1       1.0000 0.50274  0.52028  0.33517  Biso   1.000  O
  O2       1.0000 0.50274  0.52028  0.50919  Biso   1.000  O
  O3       1.0000 0.32872  0.52028  0.50919  Biso   1.000  O
  O4       1.0000 0.50274  0.34627  0.50919  Biso   1.000  O
  O5       1.0000 0.91585  0.93341  0.09633  Biso   1.000  O
  O6       1.0000 0.91585  0.93341  0.92231  Biso   1.000  O
  O7       1.0000 0.91585  0.10742  0.92231  Biso   1.000  O
  O8       1.0000 0.08986  0.93341  0.92231  Biso   1.000  O
  O9       1.0000 0.66458  0.68213  0.15156  Biso   1.000  O
  O10      1.0000 0.66458  0.68213  0.36936  Biso   1.000  O
  O11      1.0000 0.14510  0.38046  0.67104  Biso   1.000  O
  O12      1.0000 0.36290  0.16266  0.67104  Biso   1.000  O
  O13      1.0000 0.66458  0.16266  0.36936  Biso   1.000  O
  O14      1.0000 0.66458  0.38046  0.15156  Biso   1.000  O
  O15      1.0000 0.14510  0.68213  0.67104  Biso   1.000  O
  O16      1.0000 0.36290  0.68213  0.67104  Biso   1.000  O
  O17      1.0000 0.66458  0.38046  0.67104  Biso   1.000  O
  O18      1.0000 0.66458  0.16266  0.67104  Biso   1.000  O
  O19      1.0000 0.14510  0.68213  0.36936  Biso   1.000  O
  O20      1.0000 0.36290  0.68213  0.15156  Biso   1.000  O
  O21      1.0000 0.75400  0.77156  0.27994  Biso   1.000  O
  O22      1.0000 0.75400  0.77156  0.06214  Biso   1.000  O
  O23      1.0000 0.05568  0.29103  0.76046  Biso   1.000  O
  O24      1.0000 0.27348  0.07323  0.76046  Biso   1.000  O
  O25      1.0000 0.27348  0.77156  0.06214  Biso   1.000  O
  O26      1.0000 0.05568  0.77156  0.27994  Biso   1.000  O
  O27      1.0000 0.75400  0.29103  0.76046  Biso   1.000  O
  O28      1.0000 0.75400  0.07323  0.76046  Biso   1.000  O
  O29      1.0000 0.05568  0.77156  0.76046  Biso   1.000  O
  O30      1.0000 0.27348  0.77156  0.76046  Biso   1.000  O
  O31      1.0000 0.75400  0.29103  0.06214  Biso   1.000  O
  O32      1.0000 0.75400  0.07323  0.27994  Biso   1.000  O
  O33      1.0000 0.68260  0.70015  0.17818  Biso   1.000  O
  O34      1.0000 0.68260  0.70015  0.30671  Biso   1.000  O
  O35      1.0000 0.17172  0.31781  0.68905  Biso   1.000  O
  O36      1.0000 0.30026  0.18927  0.68905  Biso   1.000  O
  O37      1.0000 0.68260  0.18927  0.30671  Biso   1.000  O
  O38      1.0000 0.68260  0.31781  0.17818  Biso   1.000  O
  O39      1.0000 0.17172  0.70015  0.68905  Biso   1.000  O
  O40      1.0000 0.30026  0.70015  0.68905  Biso   1.000  O
  O41      1.0000 0.68260  0.31781  0.68905  Biso   1.000  O
  O42      1.0000 0.68260  0.18927  0.68905  Biso   1.000  O
  O43      1.0000 0.17172  0.70015  0.30671  Biso   1.000  O
  O44      1.0000 0.30026  0.70015  0.17818  Biso   1.000  O
  O45      1.0000 0.73599  0.75354  0.25332  Biso   1.000  O
  O46      1.0000 0.73599  0.75354  0.12478  Biso   1.000  O
  O47      1.0000 0.11833  0.26442  0.74245  Biso   1.000  O
  O48      1.0000 0.24686  0.13588  0.74245  Biso   1.000  O
  O49      1.0000 0.24686  0.75354  0.12478  Biso   1.000  O
  O50      1.0000 0.11833  0.75354  0.25332  Biso   1.000  O
  O51      1.0000 0.73599  0.26442  0.74245  Biso   1.000  O
  O52      1.0000 0.73599  0.13588  0.74245  Biso   1.000  O
  O53      1.0000 0.11833  0.75354  0.74245  Biso   1.000  O
  O54      1.0000 0.24686  0.75354  0.74245  Biso   1.000  O
  O55      1.0000 0.73599  0.26442  0.12478  Biso   1.000  O
  O56      1.0000 0.73599  0.13588  0.25332  Biso   1.000  O
  O57      1.0000 0.59779  0.61535  0.32712  Biso   1.000  O
  O58      1.0000 0.65553  0.67308  0.26938  Biso   1.000  O
  O59      1.0000 0.32066  0.33822  0.60425  Biso   1.000  O
  O60      1.0000 0.26293  0.28048  0.66199  Biso   1.000  O
  O61      1.0000 0.59779  0.33822  0.32712  Biso   1.000  O
  O62      1.0000 0.65553  0.28048  0.26938  Biso   1.000  O
  O63      1.0000 0.32066  0.61535  0.60425  Biso   1.000  O
  O64      1.0000 0.26293  0.67308  0.66199  Biso   1.000  O
  O65      1.0000 0.59779  0.33822  0.60425  Biso   1.000  O
  O66      1.0000 0.65553  0.28048  0.66199  Biso   1.000  O
  O67      1.0000 0.32066  0.61535  0.32712  Biso   1.000  O
  O68      1.0000 0.26293  0.67308  0.26938  Biso   1.000  O
  O69      1.0000 0.82079  0.83834  0.10438  Biso   1.000  O
  O70      1.0000 0.76306  0.78061  0.16211  Biso   1.000  O
  O71      1.0000 0.09792  0.11548  0.82725  Biso   1.000  O
  O72      1.0000 0.15566  0.17321  0.76951  Biso   1.000  O
  O73      1.0000 0.09792  0.83834  0.10438  Biso   1.000  O
  O74      1.0000 0.15566  0.78061  0.16211  Biso   1.000  O
  O75      1.0000 0.82079  0.11548  0.82725  Biso   1.000  O
  O76      1.0000 0.76306  0.17321  0.76951  Biso   1.000  O
  O77      1.0000 0.09792  0.83834  0.82725  Biso   1.000  O
  O78      1.0000 0.15566  0.78061  0.76951  Biso   1.000  O
  O79      1.0000 0.82079  0.11548  0.10438  Biso   1.000  O
  O80      1.0000 0.76306  0.17321  0.16211  Biso   1.000  O
  O81      1.0000 0.45923  0.47678  0.46569  Biso   1.000  O
  O82      1.0000 0.95936  0.97691  0.96581  Biso   1.000  O
  O83      1.0000 0.57535  0.59290  0.28863  Biso   1.000  O
  O84      1.0000 0.57535  0.59290  0.41050  Biso   1.000  O
  O85      1.0000 0.28217  0.42160  0.58181  Biso   1.000  O
  O86      1.0000 0.40404  0.29973  0.58181  Biso   1.000  O
  O87      1.0000 0.57535  0.29973  0.41050  Biso   1.000  O
  O88      1.0000 0.57535  0.42160  0.28863  Biso   1.000  O
  O89      1.0000 0.28217  0.59290  0.58181  Biso   1.000  O
  O90      1.0000 0.40404  0.59290  0.58181  Biso   1.000  O
  O91      1.0000 0.57535  0.42160  0.58181  Biso   1.000  O
  O92      1.0000 0.57535  0.29973  0.58181  Biso   1.000  O
  O93      1.0000 0.28217  0.59290  0.41050  Biso   1.000  O
  O94      1.0000 0.40404  0.59290  0.28863  Biso   1.000  O
  O95      1.0000 0.84324  0.86079  0.14287  Biso   1.000  O
  O96      1.0000 0.84324  0.86079  0.02100  Biso   1.000  O
  O97      1.0000 0.01454  0.15397  0.84969  Biso   1.000  O
  O98      1.0000 0.13641  0.03209  0.84969  Biso   1.000  O
  O99      1.0000 0.13641  0.86079  0.02100  Biso   1.000  O
  O100     1.0000 0.01454  0.86079  0.14287  Biso   1.000  O
  O101     1.0000 0.84324  0.15397  0.84969  Biso   1.000  O
  O102     1.0000 0.84324  0.03209  0.84969  Biso   1.000  O
  O103     1.0000 0.01454  0.86079  0.84969  Biso   1.000  O
  O104     1.0000 0.13641  0.86079  0.84969  Biso   1.000  O
  O105     1.0000 0.84324  0.15397  0.02100  Biso   1.000  O
