data_image0
_cell_length_a       18.2789
_cell_length_b       18.2789
_cell_length_c       18.2789
_cell_angle_alpha    60
_cell_angle_beta     60
_cell_angle_gamma    60

_symmetry_space_group_name_H-M    "P 1"
_symmetry_int_tables_number       1

loop_
  _symmetry_equiv_pos_as_xyz
  'x, y, z'

loop_
  _atom_site_label
  _atom_site_occupancy
  _atom_site_fract_x
  _atom_site_fract_y
  _atom_site_fract_z
  _atom_site_thermal_displace_type
  _atom_site_B_iso_or_equiv
  _atom_site_type_symbol
  C1       1.0000 0.29348  0.29347  0.11958  Biso   1.000  C
  C2       1.0000 0.29348  0.29347  0.29347  Biso   1.000  C
  C3       1.0000 0.11959  0.29347  0.29347  Biso   1.000  C
  C4       1.0000 0.29348  0.11958  0.29347  Biso   1.000  C
  C5       1.0000 0.70652  0.70653  0.88042  Biso   1.000  C
  C6       1.0000 0.70652  0.70653  0.70653  Biso   1.000  C
  C7       1.0000 0.70652  0.88042  0.70653  Biso   1.000  C
  C8       1.0000 0.88041  0.70653  0.70653  Biso   1.000  C
  C9       1.0000 0.45520  0.45520  0.93520  Biso   1.000  C
  C10      1.0000 0.45520  0.45520  0.15440  Biso   1.000  C
  C11      1.0000 0.93520  0.15440  0.45520  Biso   1.000  C
  C12      1.0000 0.15440  0.93520  0.45520  Biso   1.000  C
  C13      1.0000 0.45520  0.93520  0.15440  Biso   1.000  C
  C14      1.0000 0.45520  0.15440  0.93520  Biso   1.000  C
  C15      1.0000 0.93520  0.45520  0.45520  Biso   1.000  C
  C16      1.0000 0.15440  0.45520  0.45520  Biso   1.000  C
  C17      1.0000 0.45520  0.15440  0.45520  Biso   1.000  C
  C18      1.0000 0.45520  0.93520  0.45520  Biso   1.000  C
  C19      1.0000 0.93520  0.45520  0.15440  Biso   1.000  C
  C20      1.0000 0.15440  0.45520  0.93520  Biso   1.000  C
  C21      1.0000 0.54480  0.54480  0.06480  Biso   1.000  C
  C22      1.0000 0.54480  0.54480  0.84560  Biso   1.000  C
  C23      1.0000 0.84560  0.06480  0.54480  Biso   1.000  C
  C24      1.0000 0.06480  0.84560  0.54480  Biso   1.000  C
  C25      1.0000 0.06480  0.54480  0.84560  Biso   1.000  C
  C26      1.0000 0.84560  0.54480  0.06480  Biso   1.000  C
  C27      1.0000 0.54480  0.06480  0.54480  Biso   1.000  C
  C28      1.0000 0.54480  0.84560  0.54480  Biso   1.000  C
  C29      1.0000 0.84560  0.54480  0.54480  Biso   1.000  C
  C30      1.0000 0.06480  0.54480  0.54480  Biso   1.000  C
  C31      1.0000 0.54480  0.06480  0.84560  Biso   1.000  C
  C32      1.0000 0.54480  0.84560  0.06480  Biso   1.000  C
  C33      1.0000 0.47338  0.47338  0.96214  Biso   1.000  C
  C34      1.0000 0.47338  0.47338  0.09110  Biso   1.000  C
  C35      1.0000 0.96214  0.09110  0.47338  Biso   1.000  C
  C36      1.0000 0.09110  0.96214  0.47338  Biso   1.000  C
  C37      1.0000 0.47338  0.96214  0.09110  Biso   1.000  C
  C38      1.0000 0.47338  0.09110  0.96214  Biso   1.000  C
  C39      1.0000 0.96214  0.47338  0.47338  Biso   1.000  C
  C40      1.0000 0.09110  0.47338  0.47338  Biso   1.000  C
  C41      1.0000 0.47338  0.09110  0.47338  Biso   1.000  C
  C42      1.0000 0.47338  0.96214  0.47338  Biso   1.000  C
  C43      1.0000 0.96214  0.47338  0.09110  Biso   1.000  C
  C44      1.0000 0.09110  0.47338  0.96214  Biso   1.000  C
  C45      1.0000 0.52662  0.52662  0.03786  Biso   1.000  C
  C46      1.0000 0.52662  0.52662  0.90890  Biso   1.000  C
  C47      1.0000 0.90890  0.03786  0.52662  Biso   1.000  C
  C48      1.0000 0.03786  0.90890  0.52662  Biso   1.000  C
  C49      1.0000 0.03786  0.52662  0.90890  Biso   1.000  C
  C50      1.0000 0.90890  0.52662  0.03786  Biso   1.000  C
  C51      1.0000 0.52662  0.03786  0.52662  Biso   1.000  C
  C52      1.0000 0.52662  0.90890  0.52662  Biso   1.000  C
  C53      1.0000 0.90890  0.52662  0.52662  Biso   1.000  C
  C54      1.0000 0.03786  0.52662  0.52662  Biso   1.000  C
  C55      1.0000 0.52662  0.03786  0.90890  Biso   1.000  C
  C56      1.0000 0.52662  0.90890  0.03786  Biso   1.000  C
  C57      1.0000 0.38853  0.38853  0.11147  Biso   1.000  C
  C58      1.0000 0.44615  0.44615  0.05385  Biso   1.000  C
  C59      1.0000 0.11147  0.11147  0.38853  Biso   1.000  C
  C60      1.0000 0.05385  0.05385  0.44615  Biso   1.000  C
  C61      1.0000 0.38853  0.11147  0.11147  Biso   1.000  C
  C62      1.0000 0.44615  0.05385  0.05385  Biso   1.000  C
  C63      1.0000 0.11147  0.38853  0.38853  Biso   1.000  C
  C64      1.0000 0.05385  0.44615  0.44615  Biso   1.000  C
  C65      1.0000 0.38853  0.11147  0.38853  Biso   1.000  C
  C66      1.0000 0.44615  0.05385  0.44615  Biso   1.000  C
  C67      1.0000 0.11147  0.38853  0.11147  Biso   1.000  C
  C68      1.0000 0.05385  0.44615  0.05385  Biso   1.000  C
  C69      1.0000 0.61147  0.61147  0.88853  Biso   1.000  C
  C70      1.0000 0.55385  0.55385  0.94615  Biso   1.000  C
  C71      1.0000 0.88853  0.88853  0.61147  Biso   1.000  C
  C72      1.0000 0.94615  0.94615  0.55385  Biso   1.000  C
  C73      1.0000 0.88853  0.61147  0.88853  Biso   1.000  C
  C74      1.0000 0.94615  0.55385  0.94615  Biso   1.000  C
  C75      1.0000 0.61147  0.88853  0.61147  Biso   1.000  C
  C76      1.0000 0.55385  0.94615  0.55385  Biso   1.000  C
  C77      1.0000 0.88853  0.61147  0.61147  Biso   1.000  C
  C78      1.0000 0.94615  0.55385  0.55385  Biso   1.000  C
  C79      1.0000 0.61147  0.88853  0.88853  Biso   1.000  C
  C80      1.0000 0.55385  0.94615  0.94615  Biso   1.000  C
  C81      1.0000 0.25000  0.25000  0.25000  Biso   1.000  C
  C82      1.0000 0.75000  0.75000  0.75000  Biso   1.000  C
  C83      1.0000 0.36624  0.36624  0.07286  Biso   1.000  C
  C84      1.0000 0.36624  0.36624  0.19466  Biso   1.000  C
  C85      1.0000 0.07286  0.19466  0.36624  Biso   1.000  C
  C86      1.0000 0.19466  0.07286  0.36624  Biso   1.000  C
  C87      1.0000 0.36624  0.07286  0.19466  Biso   1.000  C
  C88      1.0000 0.36624  0.19466  0.07286  Biso   1.000  C
  C89      1.0000 0.07286  0.36624  0.36624  Biso   1.000  C
  C90      1.0000 0.19466  0.36624  0.36624  Biso   1.000  C
  C91      1.0000 0.36624  0.19466  0.36624  Biso   1.000  C
  C92      1.0000 0.36624  0.07286  0.36624  Biso   1.000  C
  C93      1.0000 0.07286  0.36624  0.19466  Biso   1.000  C
  C94      1.0000 0.19466  0.36624  0.07286  Biso   1.000  C
  C95      1.0000 0.63376  0.63376  0.92714  Biso   1.000  C
  C96      1.0000 0.63376  0.63376  0.80534  Biso   1.000  C
  C97      1.0000 0.80534  0.92714  0.63376  Biso   1.000  C
  C98      1.0000 0.92714  0.80534  0.63376  Biso   1.000  C
  C99      1.0000 0.92714  0.63376  0.80534  Biso   1.000  C
  C100     1.0000 0.80534  0.63376  0.92714  Biso   1.000  C
  C101     1.0000 0.63376  0.92714  0.63376  Biso   1.000  C
  C102     1.0000 0.63376  0.80534  0.63376  Biso   1.000  C
  C103     1.0000 0.80534  0.63376  0.63376  Biso   1.000  C
  C104     1.0000 0.92714  0.63376  0.63376  Biso   1.000  C
  C105     1.0000 0.63376  0.92714  0.80534  Biso   1.000  C
  C106     1.0000 0.63376  0.80534  0.92714  Biso   1.000  C
  O1       1.0000 0.99272  0.97308  0.87104  Biso   1.000  O
  O2       1.0000 0.99276  0.14515  0.87099  Biso   1.000  O
  O3       1.0000 0.16483  0.97308  0.87104  Biso   1.000  O
  O4       1.0000 0.99277  0.97303  0.04311  Biso   1.000  O
  O5       1.0000 0.57531  0.56261  0.46058  Biso   1.000  O
  O6       1.0000 0.57526  0.39054  0.46063  Biso   1.000  O
  O7       1.0000 0.40319  0.56261  0.46058  Biso   1.000  O
  O8       1.0000 0.57526  0.56266  0.28851  Biso   1.000  O
  O9       1.0000 0.81356  0.17256  0.69283  Biso   1.000  O
  O10      1.0000 0.19246  0.79465  0.69083  Biso   1.000  O
  O11      1.0000 0.81296  0.79565  0.07053  Biso   1.000  O
  O12      1.0000 0.81457  0.31008  0.69184  Biso   1.000  O
  O13      1.0000 0.81257  0.31109  0.07073  Biso   1.000  O
  O14      1.0000 0.19227  0.30989  0.69123  Biso   1.000  O
  O15      1.0000 0.32272  0.79486  0.07052  Biso   1.000  O
  O16      1.0000 0.32373  0.79286  0.69262  Biso   1.000  O
  O17      1.0000 0.32253  0.17257  0.69361  Biso   1.000  O
  O18      1.0000 0.18520  0.79386  0.20806  Biso   1.000  O
  O19      1.0000 0.80728  0.17276  0.20906  Biso   1.000  O
  O20      1.0000 0.80829  0.79326  0.20787  Biso   1.000  O
  O21      1.0000 0.75447  0.36312  0.63879  Biso   1.000  O
  O22      1.0000 0.37556  0.74103  0.64079  Biso   1.000  O
  O23      1.0000 0.75506  0.74004  0.26109  Biso   1.000  O
  O24      1.0000 0.75346  0.22560  0.63979  Biso   1.000  O
  O25      1.0000 0.75545  0.22460  0.26089  Biso   1.000  O
  O26      1.0000 0.37575  0.22579  0.64039  Biso   1.000  O
  O27      1.0000 0.24530  0.74082  0.26110  Biso   1.000  O
  O28      1.0000 0.24429  0.74282  0.63900  Biso   1.000  O
  O29      1.0000 0.24549  0.36311  0.63801  Biso   1.000  O
  O30      1.0000 0.38283  0.74182  0.12357  Biso   1.000  O
  O31      1.0000 0.76074  0.36292  0.12256  Biso   1.000  O
  O32      1.0000 0.75974  0.74243  0.12375  Biso   1.000  O
  O33      1.0000 0.84095  0.21090  0.71923  Biso   1.000  O
  O34      1.0000 0.89922  0.15263  0.77750  Biso   1.000  O
  O35      1.0000 0.23059  0.82127  0.10886  Biso   1.000  O
  O36      1.0000 0.17232  0.87953  0.05059  Biso   1.000  O
  O37      1.0000 0.72707  0.32479  0.61239  Biso   1.000  O
  O38      1.0000 0.66880  0.38305  0.55413  Biso   1.000  O
  O39      1.0000 0.33743  0.71442  0.22276  Biso   1.000  O
  O40      1.0000 0.39570  0.65615  0.28103  Biso   1.000  O
  O41      1.0000 0.84076  0.82107  0.10906  Biso   1.000  O
  O42      1.0000 0.89875  0.87906  0.05107  Biso   1.000  O
  O43      1.0000 0.23078  0.21110  0.71903  Biso   1.000  O
  O44      1.0000 0.17279  0.15311  0.77702  Biso   1.000  O
  O45      1.0000 0.72726  0.71462  0.22256  Biso   1.000  O
  O46      1.0000 0.66928  0.65663  0.28055  Biso   1.000  O
  O47      1.0000 0.33724  0.32459  0.61259  Biso   1.000  O
  O48      1.0000 0.39523  0.38258  0.55460  Biso   1.000  O
  O49      1.0000 0.23099  0.82087  0.71883  Biso   1.000  O
  O50      1.0000 0.17300  0.87886  0.77682  Biso   1.000  O
  O51      1.0000 0.84055  0.21130  0.10926  Biso   1.000  O
  O52      1.0000 0.89854  0.15331  0.05127  Biso   1.000  O
  O53      1.0000 0.33704  0.71482  0.61279  Biso   1.000  O
  O54      1.0000 0.39502  0.65683  0.55480  Biso   1.000  O
  O55      1.0000 0.72747  0.32439  0.22236  Biso   1.000  O
  O56      1.0000 0.66948  0.38237  0.28035  Biso   1.000  O
  O57      1.0000 0.92166  0.06899  0.79835  Biso   1.000  O
  O58      1.0000 0.91974  0.90197  0.96778  Biso   1.000  O
  O59      1.0000 0.08826  0.90161  0.79877  Biso   1.000  O
  O60      1.0000 0.92007  0.19299  0.79994  Biso   1.000  O
  O61      1.0000 0.08950  0.19249  0.79801  Biso   1.000  O
  O62      1.0000 0.92049  0.19334  0.96653  Biso   1.000  O
  O63      1.0000 0.21267  0.90038  0.96695  Biso   1.000  O
  O64      1.0000 0.21218  0.06982  0.79994  Biso   1.000  O
  O65      1.0000 0.21303  0.90080  0.79958  Biso   1.000  O
  O66      1.0000 0.08868  0.90197  0.09095  Biso   1.000  O
  O67      1.0000 0.92166  0.90005  0.09045  Biso   1.000  O
  O68      1.0000 0.92130  0.06857  0.09131  Biso   1.000  O
  O69      1.0000 0.64636  0.46670  0.53327  Biso   1.000  O
  O70      1.0000 0.64829  0.63371  0.36384  Biso   1.000  O
  O71      1.0000 0.47976  0.63407  0.53286  Biso   1.000  O
  O72      1.0000 0.64795  0.34270  0.53168  Biso   1.000  O
  O73      1.0000 0.47852  0.34319  0.53361  Biso   1.000  O
  O74      1.0000 0.64754  0.34234  0.36509  Biso   1.000  O
  O75      1.0000 0.35535  0.63530  0.36467  Biso   1.000  O
  O76      1.0000 0.35585  0.46586  0.53168  Biso   1.000  O
  O77      1.0000 0.35499  0.63488  0.53204  Biso   1.000  O
  O78      1.0000 0.47935  0.63371  0.24067  Biso   1.000  O
  O79      1.0000 0.64636  0.63564  0.24117  Biso   1.000  O
  O80      1.0000 0.64672  0.46711  0.24032  Biso   1.000  O
  O81      1.0000 0.03577  0.01608  0.91405  Biso   1.000  O
  O82      1.0000 0.53225  0.51960  0.41758  Biso   1.000  O
  O83      1.0000 0.11640  0.81744  0.71215  Biso   1.000  O
  O84      1.0000 0.35568  0.81418  0.71541  Biso   1.000  O
  O85      1.0000 0.45162  0.71824  0.61947  Biso   1.000  O
  O86      1.0000 0.21234  0.72150  0.61621  Biso   1.000  O
  O87      1.0000 0.35448  0.09652  0.71665  Biso   1.000  O
  O88      1.0000 0.45180  0.19384  0.61933  Biso   1.000  O
  O89      1.0000 0.83402  0.81868  0.99448  Biso   1.000  O
  O90      1.0000 0.73670  0.72137  0.09180  Biso   1.000  O
  O91      1.0000 0.83703  0.34204  0.71347  Biso   1.000  O
  O92      1.0000 0.83389  0.34304  0.99467  Biso   1.000  O
  O93      1.0000 0.45889  0.72018  0.09160  Biso   1.000  O
  O94      1.0000 0.73795  0.43898  0.09061  Biso   1.000  O
  O95      1.0000 0.11622  0.34185  0.71229  Biso   1.000  O
  O96      1.0000 0.21354  0.43916  0.61497  Biso   1.000  O
  O97      1.0000 0.83132  0.81432  0.23982  Biso   1.000  O
  O98      1.0000 0.73400  0.71700  0.33714  Biso   1.000  O
  O99      1.0000 0.21334  0.71836  0.33716  Biso   1.000  O
  O100     1.0000 0.83007  0.09670  0.24101  Biso   1.000  O
  O101     1.0000 0.73413  0.19264  0.33695  Biso   1.000  O
  O102     1.0000 0.10914  0.81550  0.24002  Biso   1.000  O
  O103     1.0000 0.73100  0.19364  0.61815  Biso   1.000  O
  O104     1.0000 0.83519  0.09650  0.71529  Biso   1.000  O
  O105     1.0000 0.73283  0.43918  0.61633  Biso   1.000  O
