data_image0
_cell_length_a       18.2507
_cell_length_b       18.2507
_cell_length_c       18.2507
_cell_angle_alpha    60
_cell_angle_beta     60
_cell_angle_gamma    60

_symmetry_space_group_name_H-M    "P 1"
_symmetry_int_tables_number       1

loop_
  _symmetry_equiv_pos_as_xyz
  'x, y, z'

loop_
  _atom_site_label
  _atom_site_occupancy
  _atom_site_fract_x
  _atom_site_fract_y
  _atom_site_fract_z
  _atom_site_thermal_displace_type
  _atom_site_B_iso_or_equiv
  _atom_site_type_symbol
  Zn1      1.0000 0.29354  0.29353  0.11940  Biso   1.000  Zn
  Zn2      1.0000 0.29354  0.29353  0.29353  Biso   1.000  Zn
  Zn3      1.0000 0.11941  0.29353  0.29353  Biso   1.000  Zn
  Zn4      1.0000 0.29354  0.11940  0.29353  Biso   1.000  Zn
  Zn5      1.0000 0.70646  0.70647  0.88060  Biso   1.000  Zn
  Zn6      1.0000 0.70646  0.70647  0.70647  Biso   1.000  Zn
  Zn7      1.0000 0.70646  0.88060  0.70647  Biso   1.000  Zn
  Zn8      1.0000 0.88059  0.70647  0.70647  Biso   1.000  Zn
  H1       1.0000 0.45580  0.45580  0.93620  Biso   1.000  H
  H2       1.0000 0.45580  0.45580  0.15220  Biso   1.000  H
  H3       1.0000 0.93620  0.15220  0.45580  Biso   1.000  H
  H4       1.0000 0.15220  0.93620  0.45580  Biso   1.000  H
  H5       1.0000 0.45580  0.93620  0.15220  Biso   1.000  H
  H6       1.0000 0.45580  0.15220  0.93620  Biso   1.000  H
  H7       1.0000 0.93620  0.45580  0.45580  Biso   1.000  H
  H8       1.0000 0.15220  0.45580  0.45580  Biso   1.000  H
  H9       1.0000 0.45580  0.15220  0.45580  Biso   1.000  H
  H10      1.0000 0.45580  0.93620  0.45580  Biso   1.000  H
  H11      1.0000 0.93620  0.45580  0.15220  Biso   1.000  H
  H12      1.0000 0.15220  0.45580  0.93620  Biso   1.000  H
  H13      1.0000 0.54420  0.54420  0.06380  Biso   1.000  H
  H14      1.0000 0.54420  0.54420  0.84780  Biso   1.000  H
  H15      1.0000 0.84780  0.06380  0.54420  Biso   1.000  H
  H16      1.0000 0.06380  0.84780  0.54420  Biso   1.000  H
  H17      1.0000 0.06380  0.54420  0.84780  Biso   1.000  H
  H18      1.0000 0.84780  0.54420  0.06380  Biso   1.000  H
  H19      1.0000 0.54420  0.06380  0.54420  Biso   1.000  H
  H20      1.0000 0.54420  0.84780  0.54420  Biso   1.000  H
  H21      1.0000 0.84780  0.54420  0.54420  Biso   1.000  H
  H22      1.0000 0.06380  0.54420  0.54420  Biso   1.000  H
  H23      1.0000 0.54420  0.06380  0.84780  Biso   1.000  H
  H24      1.0000 0.54420  0.84780  0.06380  Biso   1.000  H
  C1       1.0000 0.47349  0.47349  0.96297  Biso   1.000  C
  C2       1.0000 0.47349  0.47349  0.09005  Biso   1.000  C
  C3       1.0000 0.96297  0.09005  0.47349  Biso   1.000  C
  C4       1.0000 0.09005  0.96297  0.47349  Biso   1.000  C
  C5       1.0000 0.47349  0.96297  0.09005  Biso   1.000  C
  C6       1.0000 0.47349  0.09005  0.96297  Biso   1.000  C
  C7       1.0000 0.96297  0.47349  0.47349  Biso   1.000  C
  C8       1.0000 0.09005  0.47349  0.47349  Biso   1.000  C
  C9       1.0000 0.47349  0.09005  0.47349  Biso   1.000  C
  C10      1.0000 0.47349  0.96297  0.47349  Biso   1.000  C
  C11      1.0000 0.96297  0.47349  0.09005  Biso   1.000  C
  C12      1.0000 0.09005  0.47349  0.96297  Biso   1.000  C
  C13      1.0000 0.52651  0.52651  0.03703  Biso   1.000  C
  C14      1.0000 0.52651  0.52651  0.90995  Biso   1.000  C
  C15      1.0000 0.90995  0.03703  0.52651  Biso   1.000  C
  C16      1.0000 0.03703  0.90995  0.52651  Biso   1.000  C
  C17      1.0000 0.03703  0.52651  0.90995  Biso   1.000  C
  C18      1.0000 0.90995  0.52651  0.03703  Biso   1.000  C
  C19      1.0000 0.52651  0.03703  0.52651  Biso   1.000  C
  C20      1.0000 0.52651  0.90995  0.52651  Biso   1.000  C
  C21      1.0000 0.90995  0.52651  0.52651  Biso   1.000  C
  C22      1.0000 0.03703  0.52651  0.52651  Biso   1.000  C
  C23      1.0000 0.52651  0.03703  0.90995  Biso   1.000  C
  C24      1.0000 0.52651  0.90995  0.03703  Biso   1.000  C
  C25      1.0000 0.38859  0.38859  0.11141  Biso   1.000  C
  C26      1.0000 0.44630  0.44630  0.05370  Biso   1.000  C
  C27      1.0000 0.11141  0.11141  0.38859  Biso   1.000  C
  C28      1.0000 0.05370  0.05370  0.44630  Biso   1.000  C
  C29      1.0000 0.38859  0.11141  0.11141  Biso   1.000  C
  C30      1.0000 0.44630  0.05370  0.05370  Biso   1.000  C
  C31      1.0000 0.11141  0.38859  0.38859  Biso   1.000  C
  C32      1.0000 0.05370  0.44630  0.44630  Biso   1.000  C
  C33      1.0000 0.38859  0.11141  0.38859  Biso   1.000  C
  C34      1.0000 0.44630  0.05370  0.44630  Biso   1.000  C
  C35      1.0000 0.11141  0.38859  0.11141  Biso   1.000  C
  C36      1.0000 0.05370  0.44630  0.05370  Biso   1.000  C
  C37      1.0000 0.61141  0.61141  0.88859  Biso   1.000  C
  C38      1.0000 0.55370  0.55370  0.94630  Biso   1.000  C
  C39      1.0000 0.88859  0.88859  0.61141  Biso   1.000  C
  C40      1.0000 0.94630  0.94630  0.55370  Biso   1.000  C
  C41      1.0000 0.88859  0.61141  0.88859  Biso   1.000  C
  C42      1.0000 0.94630  0.55370  0.94630  Biso   1.000  C
  C43      1.0000 0.61141  0.88859  0.61141  Biso   1.000  C
  C44      1.0000 0.55370  0.94630  0.55370  Biso   1.000  C
  C45      1.0000 0.88859  0.61141  0.61141  Biso   1.000  C
  C46      1.0000 0.94630  0.55370  0.55370  Biso   1.000  C
  C47      1.0000 0.61141  0.88859  0.88859  Biso   1.000  C
  C48      1.0000 0.55370  0.94630  0.94630  Biso   1.000  C
  O1       1.0000 0.25000  0.25000  0.25000  Biso   1.000  O
  O2       1.0000 0.75000  0.75000  0.75000  Biso   1.000  O
  O3       1.0000 0.36605  0.36605  0.07321  Biso   1.000  O
  O4       1.0000 0.36605  0.36605  0.19469  Biso   1.000  O
  O5       1.0000 0.07321  0.19469  0.36605  Biso   1.000  O
  O6       1.0000 0.19469  0.07321  0.36605  Biso   1.000  O
  O7       1.0000 0.36605  0.07321  0.19469  Biso   1.000  O
  O8       1.0000 0.36605  0.19469  0.07321  Biso   1.000  O
  O9       1.0000 0.07321  0.36605  0.36605  Biso   1.000  O
  O10      1.0000 0.19469  0.36605  0.36605  Biso   1.000  O
  O11      1.0000 0.36605  0.19469  0.36605  Biso   1.000  O
  O12      1.0000 0.36605  0.07321  0.36605  Biso   1.000  O
  O13      1.0000 0.07321  0.36605  0.19469  Biso   1.000  O
  O14      1.0000 0.19469  0.36605  0.07321  Biso   1.000  O
  O15      1.0000 0.63395  0.63395  0.92679  Biso   1.000  O
  O16      1.0000 0.63395  0.63395  0.80531  Biso   1.000  O
  O17      1.0000 0.80531  0.92679  0.63395  Biso   1.000  O
  O18      1.0000 0.92679  0.80531  0.63395  Biso   1.000  O
  O19      1.0000 0.92679  0.63395  0.80531  Biso   1.000  O
  O20      1.0000 0.80531  0.63395  0.92679  Biso   1.000  O
  O21      1.0000 0.63395  0.92679  0.63395  Biso   1.000  O
  O22      1.0000 0.63395  0.80531  0.63395  Biso   1.000  O
  O23      1.0000 0.80531  0.63395  0.63395  Biso   1.000  O
  O24      1.0000 0.92679  0.63395  0.63395  Biso   1.000  O
  O25      1.0000 0.63395  0.92679  0.80531  Biso   1.000  O
  O26      1.0000 0.63395  0.80531  0.92679  Biso   1.000  O
  Zn9      1.0000 0.00551  0.84103  0.13421  Biso   1.000  Zn
  Zn10     1.0000 0.83273  0.01381  0.13421  Biso   1.000  Zn
  Zn11     1.0000 0.42307  0.43137  0.72456  Biso   1.000  Zn
  Zn12     1.0000 0.00551  0.01381  0.13421  Biso   1.000  Zn
  Zn13     1.0000 0.42307  0.60415  0.55177  Biso   1.000  Zn
  Zn14     1.0000 0.42307  0.43137  0.55177  Biso   1.000  Zn
  Zn15     1.0000 0.59585  0.43137  0.55177  Biso   1.000  Zn
  Zn16     1.0000 0.00551  0.01381  0.96143  Biso   1.000  Zn
  C49      1.0000 0.62788  0.75920  0.37184  Biso   1.000  C
  C50      1.0000 0.18544  0.68598  0.31414  Biso   1.000  C
  C51      1.0000 0.75090  0.25144  0.37184  Biso   1.000  C
  C52      1.0000 0.15687  0.77606  0.89647  Biso   1.000  C
  C53      1.0000 0.62788  0.25144  0.87960  Biso   1.000  C
  C54      1.0000 0.76777  0.77606  0.28557  Biso   1.000  C
  C55      1.0000 0.60248  0.61078  0.45875  Biso   1.000  C
  C56      1.0000 0.67768  0.80900  0.31414  Biso   1.000  C
  C57      1.0000 0.80070  0.68598  0.31414  Biso   1.000  C
  C58      1.0000 0.15687  0.16516  0.89647  Biso   1.000  C
  C59      1.0000 0.15687  0.77606  0.28557  Biso   1.000  C
  C60      1.0000 0.24314  0.75920  0.75658  Biso   1.000  C
  C61      1.0000 0.24314  0.63618  0.37184  Biso   1.000  C
  C62      1.0000 0.09853  0.83440  0.22723  Biso   1.000  C
  C63      1.0000 0.82610  0.10683  0.95480  Biso   1.000  C
  C64      1.0000 0.60248  0.33835  0.45875  Biso   1.000  C
  C65      1.0000 0.82610  0.10683  0.22723  Biso   1.000  C
  C66      1.0000 0.82610  0.83440  0.22723  Biso   1.000  C
  C67      1.0000 0.75090  0.63618  0.37184  Biso   1.000  C
  C68      1.0000 0.80070  0.19374  0.31414  Biso   1.000  C
  C69      1.0000 0.33005  0.61078  0.45875  Biso   1.000  C
  C70      1.0000 0.67768  0.19374  0.31414  Biso   1.000  C
  C71      1.0000 0.24314  0.63618  0.87960  Biso   1.000  C
  C72      1.0000 0.09853  0.10683  0.95480  Biso   1.000  C
  C73      1.0000 0.67768  0.19374  0.92940  Biso   1.000  C
  C74      1.0000 0.60248  0.33835  0.73118  Biso   1.000  C
  C75      1.0000 0.27172  0.66911  0.40042  Biso   1.000  C
  C76      1.0000 0.62788  0.25144  0.37184  Biso   1.000  C
  C77      1.0000 0.18544  0.19374  0.80638  Biso   1.000  C
  C78      1.0000 0.09853  0.83440  0.95480  Biso   1.000  C
  C79      1.0000 0.75090  0.25144  0.75658  Biso   1.000  C
  C80      1.0000 0.18544  0.19374  0.92940  Biso   1.000  C
  C81      1.0000 0.66082  0.28001  0.78952  Biso   1.000  C
  C82      1.0000 0.24314  0.75920  0.37184  Biso   1.000  C
  C83      1.0000 0.24314  0.25144  0.75658  Biso   1.000  C
  C84      1.0000 0.33005  0.61078  0.73118  Biso   1.000  C
  C85      1.0000 0.24314  0.25144  0.87960  Biso   1.000  C
  C86      1.0000 0.18544  0.68598  0.92940  Biso   1.000  C
  C87      1.0000 0.18544  0.80900  0.80638  Biso   1.000  C
  C88      1.0000 0.76777  0.16516  0.28557  Biso   1.000  C
  C89      1.0000 0.18544  0.80900  0.31414  Biso   1.000  C
  C90      1.0000 0.66082  0.28001  0.40042  Biso   1.000  C
  C91      1.0000 0.27172  0.66911  0.78952  Biso   1.000  C
  C92      1.0000 0.33005  0.33835  0.73118  Biso   1.000  C
  C93      1.0000 0.27172  0.28001  0.78952  Biso   1.000  C
  C94      1.0000 0.76777  0.16516  0.89647  Biso   1.000  C
  C95      1.0000 0.80070  0.19374  0.80638  Biso   1.000  C
  C96      1.0000 0.66082  0.66911  0.40042  Biso   1.000  C
  O27      1.0000 0.35079  0.65292  0.47949  Biso   1.000  O
  O28      1.0000 0.35079  0.65292  0.64757  Biso   1.000  O
  O29      1.0000 0.07780  0.79225  0.20650  Biso   1.000  O
  O30      1.0000 0.51887  0.35908  0.77333  Biso   1.000  O
  O31      1.0000 0.35079  0.35908  0.77333  Biso   1.000  O
  O32      1.0000 0.07780  0.79225  0.03842  Biso   1.000  O
  O33      1.0000 0.90972  0.08609  0.91266  Biso   1.000  O
  O34      1.0000 0.07780  0.08609  0.91266  Biso   1.000  O
  O35      1.0000 0.35079  0.52717  0.47949  Biso   1.000  O
  O36      1.0000 0.64463  0.52717  0.47949  Biso   1.000  O
  O37      1.0000 0.07780  0.91801  0.20650  Biso   1.000  O
  O38      1.0000 0.35079  0.35908  0.64757  Biso   1.000  O
  O39      1.0000 0.90972  0.08609  0.20650  Biso   1.000  O
  O40      1.0000 0.78396  0.91801  0.20650  Biso   1.000  O
  O41      1.0000 0.78396  0.08609  0.20650  Biso   1.000  O
  O42      1.0000 0.35079  0.52717  0.77333  Biso   1.000  O
  O43      1.0000 0.46627  0.47456  0.59497  Biso   1.000  O
  O44      1.0000 0.51887  0.65292  0.47949  Biso   1.000  O
  O45      1.0000 0.90972  0.79225  0.20650  Biso   1.000  O
  O46      1.0000 0.78396  0.08609  0.03842  Biso   1.000  O
  O47      1.0000 0.64463  0.35908  0.47949  Biso   1.000  O
  O48      1.0000 0.07780  0.08609  0.03842  Biso   1.000  O
  O49      1.0000 0.96232  0.97061  0.09102  Biso   1.000  O
  O50      1.0000 0.51887  0.35908  0.47949  Biso   1.000  O
  O51      1.0000 0.07780  0.91801  0.91266  Biso   1.000  O
  O52      1.0000 0.64463  0.35908  0.64757  Biso   1.000  O
  H25      1.0000 0.55170  0.79121  0.39393  Biso   1.000  H
  H26      1.0000 0.16560  0.65002  0.29430  Biso   1.000  H
  H27      1.0000 0.78291  0.27353  0.39393  Biso   1.000  H
  H28      1.0000 0.55170  0.27353  0.91162  Biso   1.000  H
  H29      1.0000 0.64567  0.88518  0.29206  Biso   1.000  H
  H30      1.0000 0.87635  0.65002  0.29430  Biso   1.000  H
  H31      1.0000 0.26523  0.79121  0.68040  Biso   1.000  H
  H32      1.0000 0.26523  0.55999  0.39393  Biso   1.000  H
  H33      1.0000 0.78291  0.55999  0.39393  Biso   1.000  H
  H34      1.0000 0.87689  0.17165  0.29206  Biso   1.000  H
  H35      1.0000 0.64567  0.17165  0.29206  Biso   1.000  H
  H36      1.0000 0.26523  0.55999  0.91162  Biso   1.000  H
  H37      1.0000 0.64567  0.17165  0.00559  Biso   1.000  H
  H38      1.0000 0.55170  0.27353  0.39393  Biso   1.000  H
  H39      1.0000 0.16560  0.17389  0.77042  Biso   1.000  H
  H40      1.0000 0.78686  0.27128  0.68093  Biso   1.000  H
  H41      1.0000 0.16560  0.17389  0.00505  Biso   1.000  H
  H42      1.0000 0.26299  0.79516  0.39169  Biso   1.000  H
  H43      1.0000 0.26523  0.27353  0.68040  Biso   1.000  H
  H44      1.0000 0.26523  0.27353  0.91162  Biso   1.000  H
  H45      1.0000 0.16560  0.65002  0.00505  Biso   1.000  H
  H46      1.0000 0.16560  0.88465  0.77042  Biso   1.000  H
  H47      1.0000 0.16560  0.88465  0.29430  Biso   1.000  H
