data_image0
_cell_length_a       18.2344
_cell_length_b       18.2344
_cell_length_c       18.2344
_cell_angle_alpha    60
_cell_angle_beta     60
_cell_angle_gamma    60

_symmetry_space_group_name_H-M    "P 1"
_symmetry_int_tables_number       1

loop_
  _symmetry_equiv_pos_as_xyz
  'x, y, z'

loop_
  _atom_site_label
  _atom_site_occupancy
  _atom_site_fract_x
  _atom_site_fract_y
  _atom_site_fract_z
  _atom_site_thermal_displace_type
  _atom_site_B_iso_or_equiv
  _atom_site_type_symbol
  C1       1.0000 0.29357  0.29359  0.11925  Biso   1.000  C
  C2       1.0000 0.29358  0.29358  0.29359  Biso   1.000  C
  C3       1.0000 0.11924  0.29359  0.29358  Biso   1.000  C
  C4       1.0000 0.29358  0.11925  0.29359  Biso   1.000  C
  C5       1.0000 0.70642  0.70642  0.88075  Biso   1.000  C
  C6       1.0000 0.70641  0.70642  0.70642  Biso   1.000  C
  C7       1.0000 0.70642  0.88075  0.70642  Biso   1.000  C
  C8       1.0000 0.88075  0.70642  0.70641  Biso   1.000  C
  C9       1.0000 0.45590  0.45590  0.93650  Biso   1.000  C
  C10      1.0000 0.45590  0.45590  0.15170  Biso   1.000  C
  C11      1.0000 0.93650  0.15170  0.45590  Biso   1.000  C
  C12      1.0000 0.15170  0.93650  0.45590  Biso   1.000  C
  C13      1.0000 0.45590  0.93650  0.15170  Biso   1.000  C
  C14      1.0000 0.45590  0.15170  0.93650  Biso   1.000  C
  C15      1.0000 0.93650  0.45590  0.45590  Biso   1.000  C
  C16      1.0000 0.15170  0.45590  0.45590  Biso   1.000  C
  C17      1.0000 0.45590  0.15170  0.45590  Biso   1.000  C
  C18      1.0000 0.45590  0.93650  0.45590  Biso   1.000  C
  C19      1.0000 0.93650  0.45590  0.15170  Biso   1.000  C
  C20      1.0000 0.15170  0.45590  0.93650  Biso   1.000  C
  C21      1.0000 0.54410  0.54410  0.06350  Biso   1.000  C
  C22      1.0000 0.54410  0.54410  0.84830  Biso   1.000  C
  C23      1.0000 0.84830  0.06350  0.54410  Biso   1.000  C
  C24      1.0000 0.06350  0.84830  0.54410  Biso   1.000  C
  C25      1.0000 0.06350  0.54410  0.84830  Biso   1.000  C
  C26      1.0000 0.84830  0.54410  0.06350  Biso   1.000  C
  C27      1.0000 0.54410  0.06350  0.54410  Biso   1.000  C
  C28      1.0000 0.54410  0.84830  0.54410  Biso   1.000  C
  C29      1.0000 0.84830  0.54410  0.54410  Biso   1.000  C
  C30      1.0000 0.06350  0.54410  0.54410  Biso   1.000  C
  C31      1.0000 0.54410  0.06350  0.84830  Biso   1.000  C
  C32      1.0000 0.54410  0.84830  0.06350  Biso   1.000  C
  C33      1.0000 0.47360  0.47360  0.96326  Biso   1.000  C
  C34      1.0000 0.47360  0.47360  0.08954  Biso   1.000  C
  C35      1.0000 0.96326  0.08954  0.47360  Biso   1.000  C
  C36      1.0000 0.08954  0.96326  0.47360  Biso   1.000  C
  C37      1.0000 0.47360  0.96326  0.08954  Biso   1.000  C
  C38      1.0000 0.47360  0.08954  0.96326  Biso   1.000  C
  C39      1.0000 0.96326  0.47360  0.47360  Biso   1.000  C
  C40      1.0000 0.08954  0.47360  0.47360  Biso   1.000  C
  C41      1.0000 0.47360  0.08954  0.47360  Biso   1.000  C
  C42      1.0000 0.47360  0.96326  0.47360  Biso   1.000  C
  C43      1.0000 0.96326  0.47360  0.08954  Biso   1.000  C
  C44      1.0000 0.08954  0.47360  0.96326  Biso   1.000  C
  C45      1.0000 0.52640  0.52640  0.03674  Biso   1.000  C
  C46      1.0000 0.52640  0.52640  0.91046  Biso   1.000  C
  C47      1.0000 0.91046  0.03674  0.52640  Biso   1.000  C
  C48      1.0000 0.03674  0.91046  0.52640  Biso   1.000  C
  C49      1.0000 0.03674  0.52640  0.91046  Biso   1.000  C
  C50      1.0000 0.91046  0.52640  0.03674  Biso   1.000  C
  C51      1.0000 0.52640  0.03674  0.52640  Biso   1.000  C
  C52      1.0000 0.52640  0.91046  0.52640  Biso   1.000  C
  C53      1.0000 0.91046  0.52640  0.52640  Biso   1.000  C
  C54      1.0000 0.03674  0.52640  0.52640  Biso   1.000  C
  C55      1.0000 0.52640  0.03674  0.91046  Biso   1.000  C
  C56      1.0000 0.52640  0.91046  0.03674  Biso   1.000  C
  C57      1.0000 0.38860  0.38860  0.11140  Biso   1.000  C
  C58      1.0000 0.44640  0.44640  0.05360  Biso   1.000  C
  C59      1.0000 0.11140  0.11140  0.38860  Biso   1.000  C
  C60      1.0000 0.05360  0.05360  0.44640  Biso   1.000  C
  C61      1.0000 0.38860  0.11140  0.11140  Biso   1.000  C
  C62      1.0000 0.44640  0.05360  0.05360  Biso   1.000  C
  C63      1.0000 0.11140  0.38860  0.38860  Biso   1.000  C
  C64      1.0000 0.05360  0.44640  0.44640  Biso   1.000  C
  C65      1.0000 0.38860  0.11140  0.38860  Biso   1.000  C
  C66      1.0000 0.44640  0.05360  0.44640  Biso   1.000  C
  C67      1.0000 0.11140  0.38860  0.11140  Biso   1.000  C
  C68      1.0000 0.05360  0.44640  0.05360  Biso   1.000  C
  C69      1.0000 0.61140  0.61140  0.88860  Biso   1.000  C
  C70      1.0000 0.55360  0.55360  0.94640  Biso   1.000  C
  C71      1.0000 0.88860  0.88860  0.61140  Biso   1.000  C
  C72      1.0000 0.94640  0.94640  0.55360  Biso   1.000  C
  C73      1.0000 0.88860  0.61140  0.88860  Biso   1.000  C
  C74      1.0000 0.94640  0.55360  0.94640  Biso   1.000  C
  C75      1.0000 0.61140  0.88860  0.61140  Biso   1.000  C
  C76      1.0000 0.55360  0.94640  0.55360  Biso   1.000  C
  C77      1.0000 0.88860  0.61140  0.61140  Biso   1.000  C
  C78      1.0000 0.94640  0.55360  0.55360  Biso   1.000  C
  C79      1.0000 0.61140  0.88860  0.88860  Biso   1.000  C
  C80      1.0000 0.55360  0.94640  0.94640  Biso   1.000  C
  C81      1.0000 0.25000  0.25000  0.25000  Biso   1.000  C
  C82      1.0000 0.75000  0.75000  0.75000  Biso   1.000  C
  C83      1.0000 0.36604  0.36604  0.07340  Biso   1.000  C
  C84      1.0000 0.36604  0.36604  0.19452  Biso   1.000  C
  C85      1.0000 0.07340  0.19452  0.36604  Biso   1.000  C
  C86      1.0000 0.19452  0.07340  0.36604  Biso   1.000  C
  C87      1.0000 0.36604  0.07340  0.19452  Biso   1.000  C
  C88      1.0000 0.36604  0.19452  0.07340  Biso   1.000  C
  C89      1.0000 0.07340  0.36604  0.36604  Biso   1.000  C
  C90      1.0000 0.19452  0.36604  0.36604  Biso   1.000  C
  C91      1.0000 0.36604  0.19452  0.36604  Biso   1.000  C
  C92      1.0000 0.36604  0.07340  0.36604  Biso   1.000  C
  C93      1.0000 0.07340  0.36604  0.19452  Biso   1.000  C
  C94      1.0000 0.19452  0.36604  0.07340  Biso   1.000  C
  C95      1.0000 0.63396  0.63396  0.92660  Biso   1.000  C
  C96      1.0000 0.63396  0.63396  0.80548  Biso   1.000  C
  C97      1.0000 0.80548  0.92660  0.63396  Biso   1.000  C
  C98      1.0000 0.92660  0.80548  0.63396  Biso   1.000  C
  C99      1.0000 0.92660  0.63396  0.80548  Biso   1.000  C
  C100     1.0000 0.80548  0.63396  0.92660  Biso   1.000  C
  C101     1.0000 0.63396  0.92660  0.63396  Biso   1.000  C
  C102     1.0000 0.63396  0.80548  0.63396  Biso   1.000  C
  C103     1.0000 0.80548  0.63396  0.63396  Biso   1.000  C
  C104     1.0000 0.92660  0.63396  0.63396  Biso   1.000  C
  C105     1.0000 0.63396  0.92660  0.80548  Biso   1.000  C
  C106     1.0000 0.63396  0.80548  0.92660  Biso   1.000  C
  O1       1.0000 0.92855  0.92749  0.06717  Biso   1.000  O
  O2       1.0000 0.92855  0.10171  0.06717  Biso   1.000  O
  O3       1.0000 0.75433  0.10171  0.06717  Biso   1.000  O
  O4       1.0000 0.92855  0.10171  0.89295  Biso   1.000  O
  O5       1.0000 0.34543  0.51326  0.47872  Biso   1.000  O
  O6       1.0000 0.34543  0.68747  0.47872  Biso   1.000  O
  O7       1.0000 0.51965  0.51326  0.47872  Biso   1.000  O
  O8       1.0000 0.34543  0.51326  0.65294  Biso   1.000  O
  O9       1.0000 0.79014  0.74191  0.22916  Biso   1.000  O
  O10      1.0000 0.09054  0.26370  0.92876  Biso   1.000  O
  O11      1.0000 0.56875  0.96330  0.22916  Biso   1.000  O
  O12      1.0000 0.09054  0.26370  0.70737  Biso   1.000  O
  O13      1.0000 0.56875  0.26370  0.92876  Biso   1.000  O
  O14      1.0000 0.09054  0.96330  0.22916  Biso   1.000  O
  O15      1.0000 0.79014  0.26370  0.70737  Biso   1.000  O
  O16      1.0000 0.09054  0.74191  0.22916  Biso   1.000  O
  O17      1.0000 0.09054  0.96330  0.70737  Biso   1.000  O
  O18      1.0000 0.79014  0.26370  0.22916  Biso   1.000  O
  O19      1.0000 0.09054  0.74191  0.92876  Biso   1.000  O
  O20      1.0000 0.56875  0.26370  0.22916  Biso   1.000  O
  O21      1.0000 0.48384  0.35127  0.31673  Biso   1.000  O
  O22      1.0000 0.18344  0.87306  0.61713  Biso   1.000  O
  O23      1.0000 0.70523  0.35127  0.31673  Biso   1.000  O
  O24      1.0000 0.18344  0.65167  0.83852  Biso   1.000  O
  O25      1.0000 0.70523  0.35127  0.61713  Biso   1.000  O
  O26      1.0000 0.18344  0.87306  0.31673  Biso   1.000  O
  O27      1.0000 0.48384  0.35127  0.83852  Biso   1.000  O
  O28      1.0000 0.18344  0.65167  0.31673  Biso   1.000  O
  O29      1.0000 0.18344  0.35127  0.83852  Biso   1.000  O
  O30      1.0000 0.48384  0.87306  0.31673  Biso   1.000  O
  O31      1.0000 0.18344  0.35127  0.61713  Biso   1.000  O
  O32      1.0000 0.70523  0.65167  0.31673  Biso   1.000  O
  O33      1.0000 0.72661  0.76874  0.24751  Biso   1.000  O
  O34      1.0000 0.10889  0.28204  0.86523  Biso   1.000  O
  O35      1.0000 0.59558  0.89977  0.24751  Biso   1.000  O
  O36      1.0000 0.10889  0.28204  0.73420  Biso   1.000  O
  O37      1.0000 0.59558  0.28204  0.86523  Biso   1.000  O
  O38      1.0000 0.10889  0.89977  0.24751  Biso   1.000  O
  O39      1.0000 0.72661  0.28204  0.73420  Biso   1.000  O
  O40      1.0000 0.10889  0.76874  0.24751  Biso   1.000  O
  O41      1.0000 0.10889  0.89977  0.73420  Biso   1.000  O
  O42      1.0000 0.72661  0.28204  0.24751  Biso   1.000  O
  O43      1.0000 0.10889  0.76874  0.86523  Biso   1.000  O
  O44      1.0000 0.59558  0.28204  0.24751  Biso   1.000  O
  O45      1.0000 0.54737  0.33292  0.29838  Biso   1.000  O
  O46      1.0000 0.16509  0.84623  0.68066  Biso   1.000  O
  O47      1.0000 0.67840  0.33292  0.29838  Biso   1.000  O
  O48      1.0000 0.16509  0.71520  0.81169  Biso   1.000  O
  O49      1.0000 0.67840  0.33292  0.68066  Biso   1.000  O
  O50      1.0000 0.16509  0.84623  0.29838  Biso   1.000  O
  O51      1.0000 0.54737  0.33292  0.81169  Biso   1.000  O
  O52      1.0000 0.16509  0.71520  0.29838  Biso   1.000  O
  O53      1.0000 0.16509  0.33292  0.81169  Biso   1.000  O
  O54      1.0000 0.54737  0.84623  0.29838  Biso   1.000  O
  O55      1.0000 0.16509  0.33292  0.68066  Biso   1.000  O
  O56      1.0000 0.67840  0.71520  0.29838  Biso   1.000  O
  O57      1.0000 0.74610  0.91926  0.16250  Biso   1.000  O
  O58      1.0000 0.68819  0.86135  0.22041  Biso   1.000  O
  O59      1.0000 0.02388  0.19704  0.88472  Biso   1.000  O
  O60      1.0000 0.08179  0.25495  0.82681  Biso   1.000  O
  O61      1.0000 0.74610  0.19704  0.88472  Biso   1.000  O
  O62      1.0000 0.68819  0.25495  0.82681  Biso   1.000  O
  O63      1.0000 0.02388  0.91926  0.16250  Biso   1.000  O
  O64      1.0000 0.08179  0.86135  0.22041  Biso   1.000  O
  O65      1.0000 0.02388  0.91926  0.88472  Biso   1.000  O
  O66      1.0000 0.08179  0.86135  0.82681  Biso   1.000  O
  O67      1.0000 0.74610  0.19704  0.16250  Biso   1.000  O
  O68      1.0000 0.68819  0.25495  0.22041  Biso   1.000  O
  O69      1.0000 0.52788  0.41793  0.38339  Biso   1.000  O
  O70      1.0000 0.58579  0.36001  0.32548  Biso   1.000  O
  O71      1.0000 0.25010  0.69571  0.66117  Biso   1.000  O
  O72      1.0000 0.19219  0.75362  0.71908  Biso   1.000  O
  O73      1.0000 0.52788  0.41793  0.66117  Biso   1.000  O
  O74      1.0000 0.58579  0.36001  0.71908  Biso   1.000  O
  O75      1.0000 0.25010  0.69571  0.38339  Biso   1.000  O
  O76      1.0000 0.19219  0.75362  0.32548  Biso   1.000  O
  O77      1.0000 0.25010  0.41793  0.66117  Biso   1.000  O
  O78      1.0000 0.19219  0.36001  0.71908  Biso   1.000  O
  O79      1.0000 0.52788  0.69571  0.38339  Biso   1.000  O
  O80      1.0000 0.58579  0.75362  0.32548  Biso   1.000  O
  O81      1.0000 0.88499  0.05815  0.02361  Biso   1.000  O
  O82      1.0000 0.38899  0.55682  0.52228  Biso   1.000  O
  O83      1.0000 0.82981  0.88017  0.14019  Biso   1.000  O
  O84      1.0000 0.00157  0.17473  0.96843  Biso   1.000  O
  O85      1.0000 0.70701  0.00297  0.14019  Biso   1.000  O
  O86      1.0000 0.00157  0.17473  0.84563  Biso   1.000  O
  O87      1.0000 0.70701  0.17473  0.96843  Biso   1.000  O
  O88      1.0000 0.00157  0.00297  0.14019  Biso   1.000  O
  O89      1.0000 0.82981  0.17473  0.84563  Biso   1.000  O
  O90      1.0000 0.00157  0.88017  0.14019  Biso   1.000  O
  O91      1.0000 0.00157  0.00297  0.84563  Biso   1.000  O
  O92      1.0000 0.82981  0.17473  0.14019  Biso   1.000  O
  O93      1.0000 0.00157  0.88017  0.96843  Biso   1.000  O
  O94      1.0000 0.70701  0.17473  0.14019  Biso   1.000  O
  O95      1.0000 0.44417  0.44024  0.40570  Biso   1.000  O
  O96      1.0000 0.27241  0.73480  0.57745  Biso   1.000  O
  O97      1.0000 0.56697  0.44024  0.40570  Biso   1.000  O
  O98      1.0000 0.27241  0.61199  0.70026  Biso   1.000  O
  O99      1.0000 0.56697  0.44024  0.57745  Biso   1.000  O
  O100     1.0000 0.27241  0.73480  0.40570  Biso   1.000  O
  O101     1.0000 0.44417  0.44024  0.70026  Biso   1.000  O
  O102     1.0000 0.27241  0.61199  0.40570  Biso   1.000  O
  O103     1.0000 0.27241  0.44024  0.70026  Biso   1.000  O
  O104     1.0000 0.44417  0.73480  0.40570  Biso   1.000  O
  O105     1.0000 0.27241  0.44024  0.57745  Biso   1.000  O
