data_image0
_cell_length_a       18.2704
_cell_length_b       18.2704
_cell_length_c       18.2704
_cell_angle_alpha    60
_cell_angle_beta     60
_cell_angle_gamma    60

_symmetry_space_group_name_H-M    "P 1"
_symmetry_int_tables_number       1

loop_
  _symmetry_equiv_pos_as_xyz
  'x, y, z'

loop_
  _atom_site_label
  _atom_site_occupancy
  _atom_site_fract_x
  _atom_site_fract_y
  _atom_site_fract_z
  _atom_site_thermal_displace_type
  _atom_site_B_iso_or_equiv
  _atom_site_type_symbol
  C1       1.0000 0.29350  0.29349  0.11952  Biso   1.000  C
  C2       1.0000 0.29350  0.29349  0.29349  Biso   1.000  C
  C3       1.0000 0.11953  0.29349  0.29349  Biso   1.000  C
  C4       1.0000 0.29350  0.11952  0.29349  Biso   1.000  C
  C5       1.0000 0.70650  0.70651  0.88048  Biso   1.000  C
  C6       1.0000 0.70650  0.70651  0.70651  Biso   1.000  C
  C7       1.0000 0.70650  0.88048  0.70651  Biso   1.000  C
  C8       1.0000 0.88047  0.70651  0.70651  Biso   1.000  C
  C9       1.0000 0.45540  0.45540  0.93560  Biso   1.000  C
  C10      1.0000 0.45540  0.45540  0.15360  Biso   1.000  C
  C11      1.0000 0.93560  0.15360  0.45540  Biso   1.000  C
  C12      1.0000 0.15360  0.93560  0.45540  Biso   1.000  C
  C13      1.0000 0.45540  0.93560  0.15360  Biso   1.000  C
  C14      1.0000 0.45540  0.15360  0.93560  Biso   1.000  C
  C15      1.0000 0.93560  0.45540  0.45540  Biso   1.000  C
  C16      1.0000 0.15360  0.45540  0.45540  Biso   1.000  C
  C17      1.0000 0.45540  0.15360  0.45540  Biso   1.000  C
  C18      1.0000 0.45540  0.93560  0.45540  Biso   1.000  C
  C19      1.0000 0.93560  0.45540  0.15360  Biso   1.000  C
  C20      1.0000 0.15360  0.45540  0.93560  Biso   1.000  C
  C21      1.0000 0.54460  0.54460  0.06440  Biso   1.000  C
  C22      1.0000 0.54460  0.54460  0.84640  Biso   1.000  C
  C23      1.0000 0.84640  0.06440  0.54460  Biso   1.000  C
  C24      1.0000 0.06440  0.84640  0.54460  Biso   1.000  C
  C25      1.0000 0.06440  0.54460  0.84640  Biso   1.000  C
  C26      1.0000 0.84640  0.54460  0.06440  Biso   1.000  C
  C27      1.0000 0.54460  0.06440  0.54460  Biso   1.000  C
  C28      1.0000 0.54460  0.84640  0.54460  Biso   1.000  C
  C29      1.0000 0.84640  0.54460  0.54460  Biso   1.000  C
  C30      1.0000 0.06440  0.54460  0.54460  Biso   1.000  C
  C31      1.0000 0.54460  0.06440  0.84640  Biso   1.000  C
  C32      1.0000 0.54460  0.84640  0.06440  Biso   1.000  C
  C33      1.0000 0.47338  0.47338  0.96238  Biso   1.000  C
  C34      1.0000 0.47338  0.47338  0.09086  Biso   1.000  C
  C35      1.0000 0.96238  0.09086  0.47338  Biso   1.000  C
  C36      1.0000 0.09086  0.96238  0.47338  Biso   1.000  C
  C37      1.0000 0.47338  0.96238  0.09086  Biso   1.000  C
  C38      1.0000 0.47338  0.09086  0.96238  Biso   1.000  C
  C39      1.0000 0.96238  0.47338  0.47338  Biso   1.000  C
  C40      1.0000 0.09086  0.47338  0.47338  Biso   1.000  C
  C41      1.0000 0.47338  0.09086  0.47338  Biso   1.000  C
  C42      1.0000 0.47338  0.96238  0.47338  Biso   1.000  C
  C43      1.0000 0.96238  0.47338  0.09086  Biso   1.000  C
  C44      1.0000 0.09086  0.47338  0.96238  Biso   1.000  C
  C45      1.0000 0.52662  0.52662  0.03762  Biso   1.000  C
  C46      1.0000 0.52662  0.52662  0.90914  Biso   1.000  C
  C47      1.0000 0.90914  0.03762  0.52662  Biso   1.000  C
  C48      1.0000 0.03762  0.90914  0.52662  Biso   1.000  C
  C49      1.0000 0.03762  0.52662  0.90914  Biso   1.000  C
  C50      1.0000 0.90914  0.52662  0.03762  Biso   1.000  C
  C51      1.0000 0.52662  0.03762  0.52662  Biso   1.000  C
  C52      1.0000 0.52662  0.90914  0.52662  Biso   1.000  C
  C53      1.0000 0.90914  0.52662  0.52662  Biso   1.000  C
  C54      1.0000 0.03762  0.52662  0.52662  Biso   1.000  C
  C55      1.0000 0.52662  0.03762  0.90914  Biso   1.000  C
  C56      1.0000 0.52662  0.90914  0.03762  Biso   1.000  C
  C57      1.0000 0.38861  0.38861  0.11139  Biso   1.000  C
  C58      1.0000 0.44619  0.44619  0.05381  Biso   1.000  C
  C59      1.0000 0.11139  0.11139  0.38861  Biso   1.000  C
  C60      1.0000 0.05381  0.05381  0.44619  Biso   1.000  C
  C61      1.0000 0.38861  0.11139  0.11139  Biso   1.000  C
  C62      1.0000 0.44619  0.05381  0.05381  Biso   1.000  C
  C63      1.0000 0.11139  0.38861  0.38861  Biso   1.000  C
  C64      1.0000 0.05381  0.44619  0.44619  Biso   1.000  C
  C65      1.0000 0.38861  0.11139  0.38861  Biso   1.000  C
  C66      1.0000 0.44619  0.05381  0.44619  Biso   1.000  C
  C67      1.0000 0.11139  0.38861  0.11139  Biso   1.000  C
  C68      1.0000 0.05381  0.44619  0.05381  Biso   1.000  C
  C69      1.0000 0.61139  0.61139  0.88861  Biso   1.000  C
  C70      1.0000 0.55381  0.55381  0.94619  Biso   1.000  C
  C71      1.0000 0.88861  0.88861  0.61139  Biso   1.000  C
  C72      1.0000 0.94619  0.94619  0.55381  Biso   1.000  C
  C73      1.0000 0.88861  0.61139  0.88861  Biso   1.000  C
  C74      1.0000 0.94619  0.55381  0.94619  Biso   1.000  C
  C75      1.0000 0.61139  0.88861  0.61139  Biso   1.000  C
  C76      1.0000 0.55381  0.94619  0.55381  Biso   1.000  C
  C77      1.0000 0.88861  0.61139  0.61139  Biso   1.000  C
  C78      1.0000 0.94619  0.55381  0.55381  Biso   1.000  C
  C79      1.0000 0.61139  0.88861  0.88861  Biso   1.000  C
  C80      1.0000 0.55381  0.94619  0.94619  Biso   1.000  C
  C81      1.0000 0.25000  0.25000  0.25000  Biso   1.000  C
  C82      1.0000 0.75000  0.75000  0.75000  Biso   1.000  C
  C83      1.0000 0.36607  0.36607  0.07299  Biso   1.000  C
  C84      1.0000 0.36607  0.36607  0.19487  Biso   1.000  C
  C85      1.0000 0.07299  0.19487  0.36607  Biso   1.000  C
  C86      1.0000 0.19487  0.07299  0.36607  Biso   1.000  C
  C87      1.0000 0.36607  0.07299  0.19487  Biso   1.000  C
  C88      1.0000 0.36607  0.19487  0.07299  Biso   1.000  C
  C89      1.0000 0.07299  0.36607  0.36607  Biso   1.000  C
  C90      1.0000 0.19487  0.36607  0.36607  Biso   1.000  C
  C91      1.0000 0.36607  0.19487  0.36607  Biso   1.000  C
  C92      1.0000 0.36607  0.07299  0.36607  Biso   1.000  C
  C93      1.0000 0.07299  0.36607  0.19487  Biso   1.000  C
  C94      1.0000 0.19487  0.36607  0.07299  Biso   1.000  C
  C95      1.0000 0.63393  0.63393  0.92701  Biso   1.000  C
  C96      1.0000 0.63393  0.63393  0.80513  Biso   1.000  C
  C97      1.0000 0.80513  0.92701  0.63393  Biso   1.000  C
  C98      1.0000 0.92701  0.80513  0.63393  Biso   1.000  C
  C99      1.0000 0.92701  0.63393  0.80513  Biso   1.000  C
  C100     1.0000 0.80513  0.63393  0.92701  Biso   1.000  C
  C101     1.0000 0.63393  0.92701  0.63393  Biso   1.000  C
  C102     1.0000 0.63393  0.80513  0.63393  Biso   1.000  C
  C103     1.0000 0.80513  0.63393  0.63393  Biso   1.000  C
  C104     1.0000 0.92701  0.63393  0.63393  Biso   1.000  C
  C105     1.0000 0.63393  0.92701  0.80513  Biso   1.000  C
  C106     1.0000 0.63393  0.80513  0.92701  Biso   1.000  C
  O1       1.0000 0.00551  0.84012  0.13407  Biso   1.000  O
  O2       1.0000 0.00551  0.01387  0.13407  Biso   1.000  O
  O3       1.0000 0.83176  0.01387  0.13407  Biso   1.000  O
  O4       1.0000 0.00551  0.01387  0.96032  Biso   1.000  O
  O5       1.0000 0.42158  0.42602  0.54622  Biso   1.000  O
  O6       1.0000 0.42158  0.59977  0.54622  Biso   1.000  O
  O7       1.0000 0.59533  0.42602  0.54622  Biso   1.000  O
  O8       1.0000 0.42158  0.42602  0.71997  Biso   1.000  O
  O9       1.0000 0.86789  0.65421  0.29584  Biso   1.000  O
  O10      1.0000 0.16727  0.17564  0.99645  Biso   1.000  O
  O11      1.0000 0.64585  0.87625  0.29584  Biso   1.000  O
  O12      1.0000 0.16727  0.17564  0.77441  Biso   1.000  O
  O13      1.0000 0.64585  0.17564  0.99645  Biso   1.000  O
  O14      1.0000 0.16727  0.87625  0.29584  Biso   1.000  O
  O15      1.0000 0.86789  0.17564  0.77441  Biso   1.000  O
  O16      1.0000 0.16727  0.65421  0.29584  Biso   1.000  O
  O17      1.0000 0.16727  0.87625  0.77441  Biso   1.000  O
  O18      1.0000 0.86789  0.17564  0.29584  Biso   1.000  O
  O19      1.0000 0.16727  0.65421  0.99645  Biso   1.000  O
  O20      1.0000 0.64585  0.17564  0.29584  Biso   1.000  O
  O21      1.0000 0.55920  0.26425  0.38445  Biso   1.000  O
  O22      1.0000 0.25982  0.78567  0.68384  Biso   1.000  O
  O23      1.0000 0.78124  0.26425  0.38445  Biso   1.000  O
  O24      1.0000 0.25982  0.56364  0.90587  Biso   1.000  O
  O25      1.0000 0.78124  0.26425  0.68384  Biso   1.000  O
  O26      1.0000 0.25982  0.78567  0.38445  Biso   1.000  O
  O27      1.0000 0.55920  0.26425  0.90587  Biso   1.000  O
  O28      1.0000 0.25982  0.56364  0.38445  Biso   1.000  O
  O29      1.0000 0.25982  0.26425  0.90587  Biso   1.000  O
  O30      1.0000 0.55920  0.78567  0.38445  Biso   1.000  O
  O31      1.0000 0.25982  0.26425  0.68384  Biso   1.000  O
  O32      1.0000 0.78124  0.56364  0.38445  Biso   1.000  O
  O33      1.0000 0.80447  0.68082  0.31424  Biso   1.000  O
  O34      1.0000 0.18568  0.19404  0.93303  Biso   1.000  O
  O35      1.0000 0.67245  0.81284  0.31424  Biso   1.000  O
  O36      1.0000 0.18568  0.19404  0.80102  Biso   1.000  O
  O37      1.0000 0.67245  0.19404  0.93303  Biso   1.000  O
  O38      1.0000 0.18568  0.81284  0.31424  Biso   1.000  O
  O39      1.0000 0.80447  0.19404  0.80102  Biso   1.000  O
  O40      1.0000 0.18568  0.68082  0.31424  Biso   1.000  O
  O41      1.0000 0.18568  0.81284  0.80102  Biso   1.000  O
  O42      1.0000 0.80447  0.19404  0.31424  Biso   1.000  O
  O43      1.0000 0.18568  0.68082  0.93303  Biso   1.000  O
  O44      1.0000 0.67245  0.19404  0.31424  Biso   1.000  O
  O45      1.0000 0.62262  0.24584  0.36604  Biso   1.000  O
  O46      1.0000 0.24141  0.75907  0.74725  Biso   1.000  O
  O47      1.0000 0.75464  0.24584  0.36604  Biso   1.000  O
  O48      1.0000 0.24141  0.62705  0.87927  Biso   1.000  O
  O49      1.0000 0.75464  0.24584  0.74725  Biso   1.000  O
  O50      1.0000 0.24141  0.75907  0.36604  Biso   1.000  O
  O51      1.0000 0.62262  0.24584  0.87927  Biso   1.000  O
  O52      1.0000 0.24141  0.62705  0.36604  Biso   1.000  O
  O53      1.0000 0.24141  0.24584  0.87927  Biso   1.000  O
  O54      1.0000 0.62262  0.75907  0.36604  Biso   1.000  O
  O55      1.0000 0.24141  0.24584  0.74725  Biso   1.000  O
  O56      1.0000 0.75464  0.62705  0.36604  Biso   1.000  O
  O57      1.0000 0.82324  0.83160  0.22947  Biso   1.000  O
  O58      1.0000 0.76550  0.77386  0.28721  Biso   1.000  O
  O59      1.0000 0.10090  0.10927  0.95180  Biso   1.000  O
  O60      1.0000 0.15865  0.16701  0.89406  Biso   1.000  O
  O61      1.0000 0.82324  0.10927  0.95180  Biso   1.000  O
  O62      1.0000 0.76550  0.16701  0.89406  Biso   1.000  O
  O63      1.0000 0.10090  0.83160  0.22947  Biso   1.000  O
  O64      1.0000 0.15865  0.77386  0.28721  Biso   1.000  O
  O65      1.0000 0.10090  0.83160  0.95180  Biso   1.000  O
  O66      1.0000 0.15865  0.77386  0.89406  Biso   1.000  O
  O67      1.0000 0.82324  0.10927  0.22947  Biso   1.000  O
  O68      1.0000 0.76550  0.16701  0.28721  Biso   1.000  O
  O69      1.0000 0.60385  0.33062  0.45082  Biso   1.000  O
  O70      1.0000 0.66159  0.27288  0.39308  Biso   1.000  O
  O71      1.0000 0.32619  0.60828  0.72848  Biso   1.000  O
  O72      1.0000 0.26844  0.66603  0.78623  Biso   1.000  O
  O73      1.0000 0.60385  0.33062  0.72848  Biso   1.000  O
  O74      1.0000 0.66159  0.27288  0.78623  Biso   1.000  O
  O75      1.0000 0.32619  0.60828  0.45082  Biso   1.000  O
  O76      1.0000 0.26844  0.66603  0.39308  Biso   1.000  O
  O77      1.0000 0.32619  0.33062  0.72848  Biso   1.000  O
  O78      1.0000 0.26844  0.27288  0.78623  Biso   1.000  O
  O79      1.0000 0.60385  0.60828  0.45082  Biso   1.000  O
  O80      1.0000 0.66159  0.66603  0.39308  Biso   1.000  O
  O81      1.0000 0.96207  0.97043  0.09063  Biso   1.000  O
  O82      1.0000 0.46502  0.46945  0.58965  Biso   1.000  O
  O83      1.0000 0.90700  0.79241  0.20718  Biso   1.000  O
  O84      1.0000 0.07862  0.08698  0.03557  Biso   1.000  O
  O85      1.0000 0.78404  0.91537  0.20718  Biso   1.000  O
  O86      1.0000 0.07862  0.08698  0.91260  Biso   1.000  O
  O87      1.0000 0.78404  0.08698  0.03557  Biso   1.000  O
  O88      1.0000 0.07862  0.91537  0.20718  Biso   1.000  O
  O89      1.0000 0.90700  0.08698  0.91260  Biso   1.000  O
  O90      1.0000 0.07862  0.79241  0.20718  Biso   1.000  O
  O91      1.0000 0.07862  0.91537  0.91260  Biso   1.000  O
  O92      1.0000 0.90700  0.08698  0.20718  Biso   1.000  O
  O93      1.0000 0.07862  0.79241  0.03557  Biso   1.000  O
  O94      1.0000 0.78404  0.08698  0.20718  Biso   1.000  O
  O95      1.0000 0.52009  0.35290  0.47310  Biso   1.000  O
  O96      1.0000 0.34847  0.64748  0.64472  Biso   1.000  O
  O97      1.0000 0.64305  0.35290  0.47310  Biso   1.000  O
  O98      1.0000 0.34847  0.52452  0.76768  Biso   1.000  O
  O99      1.0000 0.64305  0.35290  0.64472  Biso   1.000  O
  O100     1.0000 0.34847  0.64748  0.47310  Biso   1.000  O
  O101     1.0000 0.52009  0.35290  0.76768  Biso   1.000  O
  O102     1.0000 0.34847  0.52452  0.47310  Biso   1.000  O
  O103     1.0000 0.34847  0.35290  0.76768  Biso   1.000  O
  O104     1.0000 0.52009  0.64748  0.47310  Biso   1.000  O
  O105     1.0000 0.34847  0.35290  0.64472  Biso   1.000  O
