data_image0
_cell_length_a       18.2422
_cell_length_b       18.2422
_cell_length_c       18.2422
_cell_angle_alpha    60
_cell_angle_beta     60
_cell_angle_gamma    60

_symmetry_space_group_name_H-M    "P 1"
_symmetry_int_tables_number       1

loop_
  _symmetry_equiv_pos_as_xyz
  'x, y, z'

loop_
  _atom_site_label
  _atom_site_occupancy
  _atom_site_fract_x
  _atom_site_fract_y
  _atom_site_fract_z
  _atom_site_thermal_displace_type
  _atom_site_B_iso_or_equiv
  _atom_site_type_symbol
  Zn1      1.0000 0.29356  0.29355  0.11934  Biso   1.000  Zn
  Zn2      1.0000 0.29356  0.29355  0.29355  Biso   1.000  Zn
  Zn3      1.0000 0.11935  0.29355  0.29355  Biso   1.000  Zn
  Zn4      1.0000 0.29356  0.11934  0.29355  Biso   1.000  Zn
  Zn5      1.0000 0.70644  0.70645  0.88066  Biso   1.000  Zn
  Zn6      1.0000 0.70644  0.70645  0.70645  Biso   1.000  Zn
  Zn7      1.0000 0.70644  0.88066  0.70645  Biso   1.000  Zn
  Zn8      1.0000 0.88065  0.70645  0.70645  Biso   1.000  Zn
  H1       1.0000 0.45610  0.45610  0.93590  Biso   1.000  H
  H2       1.0000 0.45610  0.45610  0.15190  Biso   1.000  H
  H3       1.0000 0.93590  0.15190  0.45610  Biso   1.000  H
  H4       1.0000 0.15190  0.93590  0.45610  Biso   1.000  H
  H5       1.0000 0.45610  0.93590  0.15190  Biso   1.000  H
  H6       1.0000 0.45610  0.15190  0.93590  Biso   1.000  H
  H7       1.0000 0.93590  0.45610  0.45610  Biso   1.000  H
  H8       1.0000 0.15190  0.45610  0.45610  Biso   1.000  H
  H9       1.0000 0.45610  0.15190  0.45610  Biso   1.000  H
  H10      1.0000 0.45610  0.93590  0.45610  Biso   1.000  H
  H11      1.0000 0.93590  0.45610  0.15190  Biso   1.000  H
  H12      1.0000 0.15190  0.45610  0.93590  Biso   1.000  H
  H13      1.0000 0.54390  0.54390  0.06410  Biso   1.000  H
  H14      1.0000 0.54390  0.54390  0.84810  Biso   1.000  H
  H15      1.0000 0.84810  0.06410  0.54390  Biso   1.000  H
  H16      1.0000 0.06410  0.84810  0.54390  Biso   1.000  H
  H17      1.0000 0.06410  0.54390  0.84810  Biso   1.000  H
  H18      1.0000 0.84810  0.54390  0.06410  Biso   1.000  H
  H19      1.0000 0.54390  0.06410  0.54390  Biso   1.000  H
  H20      1.0000 0.54390  0.84810  0.54390  Biso   1.000  H
  H21      1.0000 0.84810  0.54390  0.54390  Biso   1.000  H
  H22      1.0000 0.06410  0.54390  0.54390  Biso   1.000  H
  H23      1.0000 0.54390  0.06410  0.84810  Biso   1.000  H
  H24      1.0000 0.54390  0.84810  0.06410  Biso   1.000  H
  C1       1.0000 0.47369  0.47369  0.96285  Biso   1.000  C
  C2       1.0000 0.47369  0.47369  0.08977  Biso   1.000  C
  C3       1.0000 0.96285  0.08977  0.47369  Biso   1.000  C
  C4       1.0000 0.08977  0.96285  0.47369  Biso   1.000  C
  C5       1.0000 0.47369  0.96285  0.08977  Biso   1.000  C
  C6       1.0000 0.47369  0.08977  0.96285  Biso   1.000  C
  C7       1.0000 0.96285  0.47369  0.47369  Biso   1.000  C
  C8       1.0000 0.08977  0.47369  0.47369  Biso   1.000  C
  C9       1.0000 0.47369  0.08977  0.47369  Biso   1.000  C
  C10      1.0000 0.47369  0.96285  0.47369  Biso   1.000  C
  C11      1.0000 0.96285  0.47369  0.08977  Biso   1.000  C
  C12      1.0000 0.08977  0.47369  0.96285  Biso   1.000  C
  C13      1.0000 0.52631  0.52631  0.03715  Biso   1.000  C
  C14      1.0000 0.52631  0.52631  0.91023  Biso   1.000  C
  C15      1.0000 0.91023  0.03715  0.52631  Biso   1.000  C
  C16      1.0000 0.03715  0.91023  0.52631  Biso   1.000  C
  C17      1.0000 0.03715  0.52631  0.91023  Biso   1.000  C
  C18      1.0000 0.91023  0.52631  0.03715  Biso   1.000  C
  C19      1.0000 0.52631  0.03715  0.52631  Biso   1.000  C
  C20      1.0000 0.52631  0.91023  0.52631  Biso   1.000  C
  C21      1.0000 0.91023  0.52631  0.52631  Biso   1.000  C
  C22      1.0000 0.03715  0.52631  0.52631  Biso   1.000  C
  C23      1.0000 0.52631  0.03715  0.91023  Biso   1.000  C
  C24      1.0000 0.52631  0.91023  0.03715  Biso   1.000  C
  C25      1.0000 0.38870  0.38870  0.11130  Biso   1.000  C
  C26      1.0000 0.44610  0.44610  0.05390  Biso   1.000  C
  C27      1.0000 0.11130  0.11130  0.38870  Biso   1.000  C
  C28      1.0000 0.05390  0.05390  0.44610  Biso   1.000  C
  C29      1.0000 0.38870  0.11130  0.11130  Biso   1.000  C
  C30      1.0000 0.44610  0.05390  0.05390  Biso   1.000  C
  C31      1.0000 0.11130  0.38870  0.38870  Biso   1.000  C
  C32      1.0000 0.05390  0.44610  0.44610  Biso   1.000  C
  C33      1.0000 0.38870  0.11130  0.38870  Biso   1.000  C
  C34      1.0000 0.44610  0.05390  0.44610  Biso   1.000  C
  C35      1.0000 0.11130  0.38870  0.11130  Biso   1.000  C
  C36      1.0000 0.05390  0.44610  0.05390  Biso   1.000  C
  C37      1.0000 0.61130  0.61130  0.88870  Biso   1.000  C
  C38      1.0000 0.55390  0.55390  0.94610  Biso   1.000  C
  C39      1.0000 0.88870  0.88870  0.61130  Biso   1.000  C
  C40      1.0000 0.94610  0.94610  0.55390  Biso   1.000  C
  C41      1.0000 0.88870  0.61130  0.88870  Biso   1.000  C
  C42      1.0000 0.94610  0.55390  0.94610  Biso   1.000  C
  C43      1.0000 0.61130  0.88870  0.61130  Biso   1.000  C
  C44      1.0000 0.55390  0.94610  0.55390  Biso   1.000  C
  C45      1.0000 0.88870  0.61130  0.61130  Biso   1.000  C
  C46      1.0000 0.94610  0.55390  0.55390  Biso   1.000  C
  C47      1.0000 0.61130  0.88870  0.88870  Biso   1.000  C
  C48      1.0000 0.55390  0.94610  0.94610  Biso   1.000  C
  O1       1.0000 0.25000  0.25000  0.25000  Biso   1.000  O
  O2       1.0000 0.75000  0.75000  0.75000  Biso   1.000  O
  O3       1.0000 0.36609  0.36609  0.07323  Biso   1.000  O
  O4       1.0000 0.36609  0.36609  0.19459  Biso   1.000  O
  O5       1.0000 0.07323  0.19459  0.36609  Biso   1.000  O
  O6       1.0000 0.19459  0.07323  0.36609  Biso   1.000  O
  O7       1.0000 0.36609  0.07323  0.19459  Biso   1.000  O
  O8       1.0000 0.36609  0.19459  0.07323  Biso   1.000  O
  O9       1.0000 0.07323  0.36609  0.36609  Biso   1.000  O
  O10      1.0000 0.19459  0.36609  0.36609  Biso   1.000  O
  O11      1.0000 0.36609  0.19459  0.36609  Biso   1.000  O
  O12      1.0000 0.36609  0.07323  0.36609  Biso   1.000  O
  O13      1.0000 0.07323  0.36609  0.19459  Biso   1.000  O
  O14      1.0000 0.19459  0.36609  0.07323  Biso   1.000  O
  O15      1.0000 0.63391  0.63391  0.92677  Biso   1.000  O
  O16      1.0000 0.63391  0.63391  0.80541  Biso   1.000  O
  O17      1.0000 0.80541  0.92677  0.63391  Biso   1.000  O
  O18      1.0000 0.92677  0.80541  0.63391  Biso   1.000  O
  O19      1.0000 0.92677  0.63391  0.80541  Biso   1.000  O
  O20      1.0000 0.80541  0.63391  0.92677  Biso   1.000  O
  O21      1.0000 0.63391  0.92677  0.63391  Biso   1.000  O
  O22      1.0000 0.63391  0.80541  0.63391  Biso   1.000  O
  O23      1.0000 0.80541  0.63391  0.63391  Biso   1.000  O
  O24      1.0000 0.92677  0.63391  0.63391  Biso   1.000  O
  O25      1.0000 0.63391  0.92677  0.80541  Biso   1.000  O
  O26      1.0000 0.63391  0.80541  0.92677  Biso   1.000  O
  Zn9      1.0000 0.47809  0.34589  0.67138  Biso   1.000  Zn
  Zn10     1.0000 0.65232  0.34589  0.49715  Biso   1.000  Zn
  Zn11     1.0000 0.47809  0.34589  0.49715  Biso   1.000  Zn
  Zn12     1.0000 0.47809  0.52013  0.49715  Biso   1.000  Zn
  Zn13     1.0000 0.06904  0.93173  0.90876  Biso   1.000  Zn
  Zn14     1.0000 0.89481  0.93174  0.08299  Biso   1.000  Zn
  Zn15     1.0000 0.06904  0.75750  0.08298  Biso   1.000  Zn
  Zn16     1.0000 0.06904  0.93174  0.08299  Biso   1.000  Zn
  H25      1.0000 0.61914  0.18403  0.85406  Biso   1.000  H
  H26      1.0000 0.83755  0.18403  0.63565  Biso   1.000  H
  H27      1.0000 0.31878  0.48439  0.33528  Biso   1.000  H
  H28      1.0000 0.31878  0.70280  0.33528  Biso   1.000  H
  H29      1.0000 0.31878  0.70280  0.63565  Biso   1.000  H
  H30      1.0000 0.31878  0.48439  0.85406  Biso   1.000  H
  H31      1.0000 0.61914  0.18403  0.33528  Biso   1.000  H
  H32      1.0000 0.83755  0.18403  0.33528  Biso   1.000  H
  H33      1.0000 0.83755  0.48439  0.33528  Biso   1.000  H
  H34      1.0000 0.61914  0.70280  0.33528  Biso   1.000  H
  H35      1.0000 0.31878  0.18403  0.63565  Biso   1.000  H
  H36      1.0000 0.31878  0.18403  0.85406  Biso   1.000  H
  H37      1.0000 0.92798  0.09360  0.72608  Biso   1.000  H
  H38      1.0000 0.70958  0.09360  0.94449  Biso   1.000  H
  H39      1.0000 0.22835  0.57482  0.24485  Biso   1.000  H
  H40      1.0000 0.22835  0.79323  0.24485  Biso   1.000  H
  H41      1.0000 0.22835  0.09360  0.94449  Biso   1.000  H
  H42      1.0000 0.22835  0.09360  0.72608  Biso   1.000  H
  H43      1.0000 0.92798  0.57482  0.24485  Biso   1.000  H
  H44      1.0000 0.70958  0.79323  0.24485  Biso   1.000  H
  H45      1.0000 0.70958  0.09360  0.24485  Biso   1.000  H
  H46      1.0000 0.92798  0.09360  0.24485  Biso   1.000  H
  H47      1.0000 0.22835  0.57482  0.94449  Biso   1.000  H
  H48      1.0000 0.22835  0.79323  0.72608  Biso   1.000  H
  C49      1.0000 0.68263  0.16574  0.82715  Biso   1.000  C
  C50      1.0000 0.81064  0.16574  0.69913  Biso   1.000  C
  C51      1.0000 0.30049  0.54788  0.31700  Biso   1.000  C
  C52      1.0000 0.30049  0.67589  0.31700  Biso   1.000  C
  C53      1.0000 0.30049  0.67589  0.69913  Biso   1.000  C
  C54      1.0000 0.30049  0.54788  0.82715  Biso   1.000  C
  C55      1.0000 0.68263  0.16574  0.31700  Biso   1.000  C
  C56      1.0000 0.81064  0.16574  0.31700  Biso   1.000  C
  C57      1.0000 0.81064  0.54788  0.31700  Biso   1.000  C
  C58      1.0000 0.68263  0.67589  0.31700  Biso   1.000  C
  C59      1.0000 0.30049  0.16574  0.69913  Biso   1.000  C
  C60      1.0000 0.30049  0.16574  0.82715  Biso   1.000  C
  C61      1.0000 0.86450  0.11189  0.75299  Biso   1.000  C
  C62      1.0000 0.73648  0.11189  0.88101  Biso   1.000  C
  C63      1.0000 0.24664  0.60173  0.26314  Biso   1.000  C
  C64      1.0000 0.24664  0.72975  0.26314  Biso   1.000  C
  C65      1.0000 0.24664  0.11189  0.88101  Biso   1.000  C
  C66      1.0000 0.24664  0.11189  0.75299  Biso   1.000  C
  C67      1.0000 0.86450  0.60173  0.26314  Biso   1.000  C
  C68      1.0000 0.73648  0.72975  0.26314  Biso   1.000  C
  C69      1.0000 0.73648  0.11189  0.26314  Biso   1.000  C
  C70      1.0000 0.86450  0.11189  0.26314  Biso   1.000  C
  C71      1.0000 0.24664  0.60173  0.88101  Biso   1.000  C
  C72      1.0000 0.24664  0.72975  0.75299  Biso   1.000  C
  C73      1.0000 0.66049  0.25061  0.67955  Biso   1.000  C
  C74      1.0000 0.71839  0.19271  0.73745  Biso   1.000  C
  C75      1.0000 0.38280  0.52830  0.40186  Biso   1.000  C
  C76      1.0000 0.32491  0.58619  0.34397  Biso   1.000  C
  C77      1.0000 0.38280  0.52830  0.67955  Biso   1.000  C
  C78      1.0000 0.32491  0.58619  0.73745  Biso   1.000  C
  C79      1.0000 0.66049  0.25061  0.40186  Biso   1.000  C
  C80      1.0000 0.71839  0.19271  0.34397  Biso   1.000  C
  C81      1.0000 0.66049  0.52830  0.40186  Biso   1.000  C
  C82      1.0000 0.71839  0.58619  0.34397  Biso   1.000  C
  C83      1.0000 0.38280  0.25061  0.67955  Biso   1.000  C
  C84      1.0000 0.32491  0.19271  0.73745  Biso   1.000  C
  C85      1.0000 0.88664  0.02702  0.90059  Biso   1.000  C
  C86      1.0000 0.82874  0.08492  0.84269  Biso   1.000  C
  C87      1.0000 0.16432  0.74933  0.17827  Biso   1.000  C
  C88      1.0000 0.22222  0.69143  0.23617  Biso   1.000  C
  C89      1.0000 0.16432  0.02702  0.90059  Biso   1.000  C
  C90      1.0000 0.22222  0.08492  0.84269  Biso   1.000  C
  C91      1.0000 0.88664  0.74933  0.17827  Biso   1.000  C
  C92      1.0000 0.82874  0.69143  0.23617  Biso   1.000  C
  C93      1.0000 0.88664  0.02702  0.17827  Biso   1.000  C
  C94      1.0000 0.82874  0.08492  0.23617  Biso   1.000  C
  C95      1.0000 0.16432  0.74933  0.90059  Biso   1.000  C
  C96      1.0000 0.22222  0.69143  0.84269  Biso   1.000  C
  O27      1.0000 0.52165  0.38945  0.54071  Biso   1.000  O
  O28      1.0000 0.02548  0.88818  0.03943  Biso   1.000  O
  O29      1.0000 0.57705  0.27296  0.71830  Biso   1.000  O
  O30      1.0000 0.69924  0.27296  0.59611  Biso   1.000  O
  O31      1.0000 0.40515  0.44485  0.42421  Biso   1.000  O
  O32      1.0000 0.40515  0.56705  0.42421  Biso   1.000  O
  O33      1.0000 0.40515  0.56704  0.59611  Biso   1.000  O
  O34      1.0000 0.40515  0.44485  0.71830  Biso   1.000  O
  O35      1.0000 0.57705  0.27296  0.42421  Biso   1.000  O
  O36      1.0000 0.69924  0.27296  0.42421  Biso   1.000  O
  O37      1.0000 0.69924  0.44485  0.42421  Biso   1.000  O
  O38      1.0000 0.57705  0.56704  0.42421  Biso   1.000  O
  O39      1.0000 0.40515  0.27296  0.59611  Biso   1.000  O
  O40      1.0000 0.40515  0.27296  0.71830  Biso   1.000  O
  O41      1.0000 0.97008  0.00467  0.86184  Biso   1.000  O
  O42      1.0000 0.84789  0.00467  0.98403  Biso   1.000  O
  O43      1.0000 0.14198  0.71058  0.15593  Biso   1.000  O
  O44      1.0000 0.14198  0.83277  0.15593  Biso   1.000  O
  O45      1.0000 0.14198  0.00467  0.98403  Biso   1.000  O
  O46      1.0000 0.14198  0.00467  0.86184  Biso   1.000  O
  O47      1.0000 0.97008  0.71058  0.15593  Biso   1.000  O
  O48      1.0000 0.84789  0.83277  0.15593  Biso   1.000  O
  O49      1.0000 0.84789  0.00467  0.15593  Biso   1.000  O
  O50      1.0000 0.97008  0.00467  0.15593  Biso   1.000  O
  O51      1.0000 0.14198  0.71058  0.98403  Biso   1.000  O
