data_image0
_cell_length_a       18.255
_cell_length_b       18.255
_cell_length_c       18.255
_cell_angle_alpha    60
_cell_angle_beta     60
_cell_angle_gamma    60

_symmetry_space_group_name_H-M    "P 1"
_symmetry_int_tables_number       1

loop_
  _symmetry_equiv_pos_as_xyz
  'x, y, z'

loop_
  _atom_site_label
  _atom_site_occupancy
  _atom_site_fract_x
  _atom_site_fract_y
  _atom_site_fract_z
  _atom_site_thermal_displace_type
  _atom_site_B_iso_or_equiv
  _atom_site_type_symbol
  C1       1.0000 0.29354  0.29354  0.11938  Biso   1.000  C
  C2       1.0000 0.29354  0.29354  0.29354  Biso   1.000  C
  C3       1.0000 0.11938  0.29354  0.29354  Biso   1.000  C
  C4       1.0000 0.29354  0.11938  0.29354  Biso   1.000  C
  C5       1.0000 0.70646  0.70646  0.88062  Biso   1.000  C
  C6       1.0000 0.70646  0.70646  0.70646  Biso   1.000  C
  C7       1.0000 0.70646  0.88062  0.70646  Biso   1.000  C
  C8       1.0000 0.88062  0.70646  0.70646  Biso   1.000  C
  C9       1.0000 0.45570  0.45570  0.93630  Biso   1.000  C
  C10      1.0000 0.45570  0.45570  0.15230  Biso   1.000  C
  C11      1.0000 0.93630  0.15230  0.45570  Biso   1.000  C
  C12      1.0000 0.15230  0.93630  0.45570  Biso   1.000  C
  C13      1.0000 0.45570  0.93630  0.15230  Biso   1.000  C
  C14      1.0000 0.45570  0.15230  0.93630  Biso   1.000  C
  C15      1.0000 0.93630  0.45570  0.45570  Biso   1.000  C
  C16      1.0000 0.15230  0.45570  0.45570  Biso   1.000  C
  C17      1.0000 0.45570  0.15230  0.45570  Biso   1.000  C
  C18      1.0000 0.45570  0.93630  0.45570  Biso   1.000  C
  C19      1.0000 0.93630  0.45570  0.15230  Biso   1.000  C
  C20      1.0000 0.15230  0.45570  0.93630  Biso   1.000  C
  C21      1.0000 0.54430  0.54430  0.06370  Biso   1.000  C
  C22      1.0000 0.54430  0.54430  0.84770  Biso   1.000  C
  C23      1.0000 0.84770  0.06370  0.54430  Biso   1.000  C
  C24      1.0000 0.06370  0.84770  0.54430  Biso   1.000  C
  C25      1.0000 0.06370  0.54430  0.84770  Biso   1.000  C
  C26      1.0000 0.84770  0.54430  0.06370  Biso   1.000  C
  C27      1.0000 0.54430  0.06370  0.54430  Biso   1.000  C
  C28      1.0000 0.54430  0.84770  0.54430  Biso   1.000  C
  C29      1.0000 0.84770  0.54430  0.54430  Biso   1.000  C
  C30      1.0000 0.06370  0.54430  0.54430  Biso   1.000  C
  C31      1.0000 0.54430  0.06370  0.84770  Biso   1.000  C
  C32      1.0000 0.54430  0.84770  0.06370  Biso   1.000  C
  C33      1.0000 0.47332  0.47332  0.96310  Biso   1.000  C
  C34      1.0000 0.47332  0.47332  0.09026  Biso   1.000  C
  C35      1.0000 0.96310  0.09026  0.47332  Biso   1.000  C
  C36      1.0000 0.09026  0.96310  0.47332  Biso   1.000  C
  C37      1.0000 0.47332  0.96310  0.09026  Biso   1.000  C
  C38      1.0000 0.47332  0.09026  0.96310  Biso   1.000  C
  C39      1.0000 0.96310  0.47332  0.47332  Biso   1.000  C
  C40      1.0000 0.09026  0.47332  0.47332  Biso   1.000  C
  C41      1.0000 0.47332  0.09026  0.47332  Biso   1.000  C
  C42      1.0000 0.47332  0.96310  0.47332  Biso   1.000  C
  C43      1.0000 0.96310  0.47332  0.09026  Biso   1.000  C
  C44      1.0000 0.09026  0.47332  0.96310  Biso   1.000  C
  C45      1.0000 0.52668  0.52668  0.03690  Biso   1.000  C
  C46      1.0000 0.52668  0.52668  0.90974  Biso   1.000  C
  C47      1.0000 0.90974  0.03690  0.52668  Biso   1.000  C
  C48      1.0000 0.03690  0.90974  0.52668  Biso   1.000  C
  C49      1.0000 0.03690  0.52668  0.90974  Biso   1.000  C
  C50      1.0000 0.90974  0.52668  0.03690  Biso   1.000  C
  C51      1.0000 0.52668  0.03690  0.52668  Biso   1.000  C
  C52      1.0000 0.52668  0.90974  0.52668  Biso   1.000  C
  C53      1.0000 0.90974  0.52668  0.52668  Biso   1.000  C
  C54      1.0000 0.03690  0.52668  0.52668  Biso   1.000  C
  C55      1.0000 0.52668  0.03690  0.90974  Biso   1.000  C
  C56      1.0000 0.52668  0.90974  0.03690  Biso   1.000  C
  C57      1.0000 0.38870  0.38870  0.11130  Biso   1.000  C
  C58      1.0000 0.44580  0.44580  0.05420  Biso   1.000  C
  C59      1.0000 0.11130  0.11130  0.38870  Biso   1.000  C
  C60      1.0000 0.05420  0.05420  0.44580  Biso   1.000  C
  C61      1.0000 0.38870  0.11130  0.11130  Biso   1.000  C
  C62      1.0000 0.44580  0.05420  0.05420  Biso   1.000  C
  C63      1.0000 0.11130  0.38870  0.38870  Biso   1.000  C
  C64      1.0000 0.05420  0.44580  0.44580  Biso   1.000  C
  C65      1.0000 0.38870  0.11130  0.38870  Biso   1.000  C
  C66      1.0000 0.44580  0.05420  0.44580  Biso   1.000  C
  C67      1.0000 0.11130  0.38870  0.11130  Biso   1.000  C
  C68      1.0000 0.05420  0.44580  0.05420  Biso   1.000  C
  C69      1.0000 0.61130  0.61130  0.88870  Biso   1.000  C
  C70      1.0000 0.55420  0.55420  0.94580  Biso   1.000  C
  C71      1.0000 0.88870  0.88870  0.61130  Biso   1.000  C
  C72      1.0000 0.94580  0.94580  0.55420  Biso   1.000  C
  C73      1.0000 0.88870  0.61130  0.88870  Biso   1.000  C
  C74      1.0000 0.94580  0.55420  0.94580  Biso   1.000  C
  C75      1.0000 0.61130  0.88870  0.61130  Biso   1.000  C
  C76      1.0000 0.55420  0.94580  0.55420  Biso   1.000  C
  C77      1.0000 0.88870  0.61130  0.61130  Biso   1.000  C
  C78      1.0000 0.94580  0.55420  0.55420  Biso   1.000  C
  C79      1.0000 0.61130  0.88870  0.88870  Biso   1.000  C
  C80      1.0000 0.55420  0.94580  0.94580  Biso   1.000  C
  C81      1.0000 0.25000  0.25000  0.25000  Biso   1.000  C
  C82      1.0000 0.75000  0.75000  0.75000  Biso   1.000  C
  C83      1.0000 0.36613  0.36613  0.07303  Biso   1.000  C
  C84      1.0000 0.36613  0.36613  0.19471  Biso   1.000  C
  C85      1.0000 0.07303  0.19471  0.36613  Biso   1.000  C
  C86      1.0000 0.19471  0.07303  0.36613  Biso   1.000  C
  C87      1.0000 0.36613  0.07303  0.19471  Biso   1.000  C
  C88      1.0000 0.36613  0.19471  0.07303  Biso   1.000  C
  C89      1.0000 0.07303  0.36613  0.36613  Biso   1.000  C
  C90      1.0000 0.19471  0.36613  0.36613  Biso   1.000  C
  C91      1.0000 0.36613  0.19471  0.36613  Biso   1.000  C
  C92      1.0000 0.36613  0.07303  0.36613  Biso   1.000  C
  C93      1.0000 0.07303  0.36613  0.19471  Biso   1.000  C
  C94      1.0000 0.19471  0.36613  0.07303  Biso   1.000  C
  C95      1.0000 0.63387  0.63387  0.92697  Biso   1.000  C
  C96      1.0000 0.63387  0.63387  0.80529  Biso   1.000  C
  C97      1.0000 0.80529  0.92697  0.63387  Biso   1.000  C
  C98      1.0000 0.92697  0.80529  0.63387  Biso   1.000  C
  C99      1.0000 0.92697  0.63387  0.80529  Biso   1.000  C
  C100     1.0000 0.80529  0.63387  0.92697  Biso   1.000  C
  C101     1.0000 0.63387  0.92697  0.63387  Biso   1.000  C
  C102     1.0000 0.63387  0.80529  0.63387  Biso   1.000  C
  C103     1.0000 0.80529  0.63387  0.63387  Biso   1.000  C
  C104     1.0000 0.92697  0.63387  0.63387  Biso   1.000  C
  C105     1.0000 0.63387  0.92697  0.80529  Biso   1.000  C
  C106     1.0000 0.63387  0.80529  0.92697  Biso   1.000  C
  O1       1.0000 0.99402  0.97435  0.87218  Biso   1.000  O
  O2       1.0000 0.99406  0.14665  0.87213  Biso   1.000  O
  O3       1.0000 0.16636  0.97435  0.87218  Biso   1.000  O
  O4       1.0000 0.99407  0.97430  0.04447  Biso   1.000  O
  O5       1.0000 0.57737  0.56334  0.46118  Biso   1.000  O
  O6       1.0000 0.57732  0.39105  0.46123  Biso   1.000  O
  O7       1.0000 0.40503  0.56334  0.46118  Biso   1.000  O
  O8       1.0000 0.57732  0.56339  0.28889  Biso   1.000  O
  O9       1.0000 0.81462  0.17410  0.69374  Biso   1.000  O
  O10      1.0000 0.19402  0.79569  0.69174  Biso   1.000  O
  O11      1.0000 0.81402  0.79669  0.07193  Biso   1.000  O
  O12      1.0000 0.81563  0.31049  0.69274  Biso   1.000  O
  O13      1.0000 0.81363  0.31149  0.07213  Biso   1.000  O
  O14      1.0000 0.19383  0.31030  0.69214  Biso   1.000  O
  O15      1.0000 0.32446  0.79590  0.07192  Biso   1.000  O
  O16      1.0000 0.32546  0.79390  0.69353  Biso   1.000  O
  O17      1.0000 0.32426  0.17411  0.69452  Biso   1.000  O
  O18      1.0000 0.18806  0.79490  0.20833  Biso   1.000  O
  O19      1.0000 0.80965  0.17430  0.20933  Biso   1.000  O
  O20      1.0000 0.81065  0.79430  0.20814  Biso   1.000  O
  O21      1.0000 0.75676  0.36360  0.63963  Biso   1.000  O
  O22      1.0000 0.37736  0.74200  0.64163  Biso   1.000  O
  O23      1.0000 0.75736  0.74100  0.26143  Biso   1.000  O
  O24      1.0000 0.75575  0.22721  0.64062  Biso   1.000  O
  O25      1.0000 0.75775  0.22620  0.26123  Biso   1.000  O
  O26      1.0000 0.37755  0.22740  0.64123  Biso   1.000  O
  O27      1.0000 0.24693  0.74179  0.26144  Biso   1.000  O
  O28      1.0000 0.24592  0.74379  0.63984  Biso   1.000  O
  O29      1.0000 0.24712  0.36359  0.63884  Biso   1.000  O
  O30      1.0000 0.38333  0.74279  0.12504  Biso   1.000  O
  O31      1.0000 0.76173  0.36340  0.12403  Biso   1.000  O
  O32      1.0000 0.76073  0.74340  0.12523  Biso   1.000  O
  O33      1.0000 0.84205  0.21248  0.72017  Biso   1.000  O
  O34      1.0000 0.90040  0.15414  0.77851  Biso   1.000  O
  O35      1.0000 0.23220  0.82234  0.11031  Biso   1.000  O
  O36      1.0000 0.17386  0.88068  0.05197  Biso   1.000  O
  O37      1.0000 0.72933  0.32521  0.61319  Biso   1.000  O
  O38      1.0000 0.67099  0.38355  0.55485  Biso   1.000  O
  O39      1.0000 0.33918  0.71535  0.22305  Biso   1.000  O
  O40      1.0000 0.39753  0.65701  0.28139  Biso   1.000  O
  O41      1.0000 0.84186  0.82214  0.11051  Biso   1.000  O
  O42      1.0000 0.89992  0.88021  0.05245  Biso   1.000  O
  O43      1.0000 0.23239  0.21268  0.71997  Biso   1.000  O
  O44      1.0000 0.17433  0.15462  0.77804  Biso   1.000  O
  O45      1.0000 0.72952  0.71555  0.22285  Biso   1.000  O
  O46      1.0000 0.67146  0.65749  0.28092  Biso   1.000  O
  O47      1.0000 0.33899  0.32501  0.61339  Biso   1.000  O
  O48      1.0000 0.39706  0.38308  0.55533  Biso   1.000  O
  O49      1.0000 0.23260  0.82194  0.71978  Biso   1.000  O
  O50      1.0000 0.17453  0.88001  0.77784  Biso   1.000  O
  O51      1.0000 0.84165  0.21288  0.11071  Biso   1.000  O
  O52      1.0000 0.89972  0.15482  0.05265  Biso   1.000  O
  O53      1.0000 0.33879  0.71575  0.61359  Biso   1.000  O
  O54      1.0000 0.39685  0.65769  0.55553  Biso   1.000  O
  O55      1.0000 0.72973  0.32481  0.22266  Biso   1.000  O
  O56      1.0000 0.67167  0.38288  0.28072  Biso   1.000  O
  O57      1.0000 0.92287  0.07039  0.79939  Biso   1.000  O
  O58      1.0000 0.92094  0.90315  0.96905  Biso   1.000  O
  O59      1.0000 0.08968  0.90279  0.79981  Biso   1.000  O
  O60      1.0000 0.92127  0.19455  0.80098  Biso   1.000  O
  O61      1.0000 0.09093  0.19405  0.79906  Biso   1.000  O
  O62      1.0000 0.92169  0.19491  0.96780  Biso   1.000  O
  O63      1.0000 0.21426  0.90156  0.96822  Biso   1.000  O
  O64      1.0000 0.21376  0.07122  0.80098  Biso   1.000  O
  O65      1.0000 0.21462  0.90198  0.80063  Biso   1.000  O
  O66      1.0000 0.09010  0.90315  0.09238  Biso   1.000  O
  O67      1.0000 0.92287  0.90123  0.09188  Biso   1.000  O
  O68      1.0000 0.92251  0.06997  0.09273  Biso   1.000  O
  O69      1.0000 0.64852  0.46731  0.53397  Biso   1.000  O
  O70      1.0000 0.65044  0.63454  0.36431  Biso   1.000  O
  O71      1.0000 0.48170  0.63490  0.53355  Biso   1.000  O
  O72      1.0000 0.65011  0.34315  0.53238  Biso   1.000  O
  O73      1.0000 0.48045  0.34364  0.53431  Biso   1.000  O
  O74      1.0000 0.64969  0.34279  0.36557  Biso   1.000  O
  O75      1.0000 0.35712  0.63613  0.36515  Biso   1.000  O
  O76      1.0000 0.35762  0.46647  0.53238  Biso   1.000  O
  O77      1.0000 0.35676  0.63572  0.53274  Biso   1.000  O
  O78      1.0000 0.48128  0.63454  0.24099  Biso   1.000  O
  O79      1.0000 0.64851  0.63647  0.24149  Biso   1.000  O
  O80      1.0000 0.64888  0.46772  0.24063  Biso   1.000  O
  O81      1.0000 0.03713  0.01741  0.91524  Biso   1.000  O
  O82      1.0000 0.53426  0.52028  0.41812  Biso   1.000  O
  O83      1.0000 0.11786  0.81851  0.71308  Biso   1.000  O
  O84      1.0000 0.35746  0.81525  0.71634  Biso   1.000  O
  O85      1.0000 0.45352  0.71918  0.62028  Biso   1.000  O
  O86      1.0000 0.21393  0.72245  0.61702  Biso   1.000  O
  O87      1.0000 0.35626  0.09796  0.71759  Biso   1.000  O
  O88      1.0000 0.45370  0.19540  0.62014  Biso   1.000  O
  O89      1.0000 0.83511  0.81976  0.99579  Biso   1.000  O
  O90      1.0000 0.73767  0.72231  0.09323  Biso   1.000  O
  O91      1.0000 0.83812  0.34249  0.71441  Biso   1.000  O
  O92      1.0000 0.83498  0.34349  0.99597  Biso   1.000  O
  O93      1.0000 0.45949  0.72113  0.09303  Biso   1.000  O
  O94      1.0000 0.73891  0.43955  0.09204  Biso   1.000  O
  O95      1.0000 0.11768  0.34229  0.71322  Biso   1.000  O
  O96      1.0000 0.21513  0.43974  0.61578  Biso   1.000  O
  O97      1.0000 0.83372  0.81538  0.24013  Biso   1.000  O
  O98      1.0000 0.73627  0.71794  0.33758  Biso   1.000  O
  O99      1.0000 0.21492  0.71930  0.33760  Biso   1.000  O
  O100     1.0000 0.83247  0.09814  0.24133  Biso   1.000  O
  O101     1.0000 0.73640  0.19421  0.33739  Biso   1.000  O
  O102     1.0000 0.11190  0.81657  0.24033  Biso   1.000  O
  O103     1.0000 0.73326  0.19520  0.61896  Biso   1.000  O
  O104     1.0000 0.83629  0.09794  0.71623  Biso   1.000  O
  O105     1.0000 0.73510  0.43976  0.61714  Biso   1.000  O
