data_image0
_cell_length_a       18.2422
_cell_length_b       18.2422
_cell_length_c       18.2422
_cell_angle_alpha    60
_cell_angle_beta     60
_cell_angle_gamma    60

_symmetry_space_group_name_H-M    "P 1"
_symmetry_int_tables_number       1

loop_
  _symmetry_equiv_pos_as_xyz
  'x, y, z'

loop_
  _atom_site_label
  _atom_site_occupancy
  _atom_site_fract_x
  _atom_site_fract_y
  _atom_site_fract_z
  _atom_site_thermal_displace_type
  _atom_site_B_iso_or_equiv
  _atom_site_type_symbol
  C1       1.0000 0.29356  0.29355  0.11934  Biso   1.000  C
  C2       1.0000 0.29356  0.29355  0.29355  Biso   1.000  C
  C3       1.0000 0.11935  0.29355  0.29355  Biso   1.000  C
  C4       1.0000 0.29356  0.11934  0.29355  Biso   1.000  C
  C5       1.0000 0.70644  0.70645  0.88066  Biso   1.000  C
  C6       1.0000 0.70644  0.70645  0.70645  Biso   1.000  C
  C7       1.0000 0.70644  0.88066  0.70645  Biso   1.000  C
  C8       1.0000 0.88065  0.70645  0.70645  Biso   1.000  C
  C9       1.0000 0.45610  0.45610  0.93590  Biso   1.000  C
  C10      1.0000 0.45610  0.45610  0.15190  Biso   1.000  C
  C11      1.0000 0.93590  0.15190  0.45610  Biso   1.000  C
  C12      1.0000 0.15190  0.93590  0.45610  Biso   1.000  C
  C13      1.0000 0.45610  0.93590  0.15190  Biso   1.000  C
  C14      1.0000 0.45610  0.15190  0.93590  Biso   1.000  C
  C15      1.0000 0.93590  0.45610  0.45610  Biso   1.000  C
  C16      1.0000 0.15190  0.45610  0.45610  Biso   1.000  C
  C17      1.0000 0.45610  0.15190  0.45610  Biso   1.000  C
  C18      1.0000 0.45610  0.93590  0.45610  Biso   1.000  C
  C19      1.0000 0.93590  0.45610  0.15190  Biso   1.000  C
  C20      1.0000 0.15190  0.45610  0.93590  Biso   1.000  C
  C21      1.0000 0.54390  0.54390  0.06410  Biso   1.000  C
  C22      1.0000 0.54390  0.54390  0.84810  Biso   1.000  C
  C23      1.0000 0.84810  0.06410  0.54390  Biso   1.000  C
  C24      1.0000 0.06410  0.84810  0.54390  Biso   1.000  C
  C25      1.0000 0.06410  0.54390  0.84810  Biso   1.000  C
  C26      1.0000 0.84810  0.54390  0.06410  Biso   1.000  C
  C27      1.0000 0.54390  0.06410  0.54390  Biso   1.000  C
  C28      1.0000 0.54390  0.84810  0.54390  Biso   1.000  C
  C29      1.0000 0.84810  0.54390  0.54390  Biso   1.000  C
  C30      1.0000 0.06410  0.54390  0.54390  Biso   1.000  C
  C31      1.0000 0.54390  0.06410  0.84810  Biso   1.000  C
  C32      1.0000 0.54390  0.84810  0.06410  Biso   1.000  C
  C33      1.0000 0.47369  0.47369  0.96285  Biso   1.000  C
  C34      1.0000 0.47369  0.47369  0.08977  Biso   1.000  C
  C35      1.0000 0.96285  0.08977  0.47369  Biso   1.000  C
  C36      1.0000 0.08977  0.96285  0.47369  Biso   1.000  C
  C37      1.0000 0.47369  0.96285  0.08977  Biso   1.000  C
  C38      1.0000 0.47369  0.08977  0.96285  Biso   1.000  C
  C39      1.0000 0.96285  0.47369  0.47369  Biso   1.000  C
  C40      1.0000 0.08977  0.47369  0.47369  Biso   1.000  C
  C41      1.0000 0.47369  0.08977  0.47369  Biso   1.000  C
  C42      1.0000 0.47369  0.96285  0.47369  Biso   1.000  C
  C43      1.0000 0.96285  0.47369  0.08977  Biso   1.000  C
  C44      1.0000 0.08977  0.47369  0.96285  Biso   1.000  C
  C45      1.0000 0.52631  0.52631  0.03715  Biso   1.000  C
  C46      1.0000 0.52631  0.52631  0.91023  Biso   1.000  C
  C47      1.0000 0.91023  0.03715  0.52631  Biso   1.000  C
  C48      1.0000 0.03715  0.91023  0.52631  Biso   1.000  C
  C49      1.0000 0.03715  0.52631  0.91023  Biso   1.000  C
  C50      1.0000 0.91023  0.52631  0.03715  Biso   1.000  C
  C51      1.0000 0.52631  0.03715  0.52631  Biso   1.000  C
  C52      1.0000 0.52631  0.91023  0.52631  Biso   1.000  C
  C53      1.0000 0.91023  0.52631  0.52631  Biso   1.000  C
  C54      1.0000 0.03715  0.52631  0.52631  Biso   1.000  C
  C55      1.0000 0.52631  0.03715  0.91023  Biso   1.000  C
  C56      1.0000 0.52631  0.91023  0.03715  Biso   1.000  C
  C57      1.0000 0.38870  0.38870  0.11130  Biso   1.000  C
  C58      1.0000 0.44610  0.44610  0.05390  Biso   1.000  C
  C59      1.0000 0.11130  0.11130  0.38870  Biso   1.000  C
  C60      1.0000 0.05390  0.05390  0.44610  Biso   1.000  C
  C61      1.0000 0.38870  0.11130  0.11130  Biso   1.000  C
  C62      1.0000 0.44610  0.05390  0.05390  Biso   1.000  C
  C63      1.0000 0.11130  0.38870  0.38870  Biso   1.000  C
  C64      1.0000 0.05390  0.44610  0.44610  Biso   1.000  C
  C65      1.0000 0.38870  0.11130  0.38870  Biso   1.000  C
  C66      1.0000 0.44610  0.05390  0.44610  Biso   1.000  C
  C67      1.0000 0.11130  0.38870  0.11130  Biso   1.000  C
  C68      1.0000 0.05390  0.44610  0.05390  Biso   1.000  C
  C69      1.0000 0.61130  0.61130  0.88870  Biso   1.000  C
  C70      1.0000 0.55390  0.55390  0.94610  Biso   1.000  C
  C71      1.0000 0.88870  0.88870  0.61130  Biso   1.000  C
  C72      1.0000 0.94610  0.94610  0.55390  Biso   1.000  C
  C73      1.0000 0.88870  0.61130  0.88870  Biso   1.000  C
  C74      1.0000 0.94610  0.55390  0.94610  Biso   1.000  C
  C75      1.0000 0.61130  0.88870  0.61130  Biso   1.000  C
  C76      1.0000 0.55390  0.94610  0.55390  Biso   1.000  C
  C77      1.0000 0.88870  0.61130  0.61130  Biso   1.000  C
  C78      1.0000 0.94610  0.55390  0.55390  Biso   1.000  C
  C79      1.0000 0.61130  0.88870  0.88870  Biso   1.000  C
  C80      1.0000 0.55390  0.94610  0.94610  Biso   1.000  C
  C81      1.0000 0.25000  0.25000  0.25000  Biso   1.000  C
  C82      1.0000 0.75000  0.75000  0.75000  Biso   1.000  C
  C83      1.0000 0.36609  0.36609  0.07323  Biso   1.000  C
  C84      1.0000 0.36609  0.36609  0.19459  Biso   1.000  C
  C85      1.0000 0.07323  0.19459  0.36609  Biso   1.000  C
  C86      1.0000 0.19459  0.07323  0.36609  Biso   1.000  C
  C87      1.0000 0.36609  0.07323  0.19459  Biso   1.000  C
  C88      1.0000 0.36609  0.19459  0.07323  Biso   1.000  C
  C89      1.0000 0.07323  0.36609  0.36609  Biso   1.000  C
  C90      1.0000 0.19459  0.36609  0.36609  Biso   1.000  C
  C91      1.0000 0.36609  0.19459  0.36609  Biso   1.000  C
  C92      1.0000 0.36609  0.07323  0.36609  Biso   1.000  C
  C93      1.0000 0.07323  0.36609  0.19459  Biso   1.000  C
  C94      1.0000 0.19459  0.36609  0.07323  Biso   1.000  C
  C95      1.0000 0.63391  0.63391  0.92677  Biso   1.000  C
  C96      1.0000 0.63391  0.63391  0.80541  Biso   1.000  C
  C97      1.0000 0.80541  0.92677  0.63391  Biso   1.000  C
  C98      1.0000 0.92677  0.80541  0.63391  Biso   1.000  C
  C99      1.0000 0.92677  0.63391  0.80541  Biso   1.000  C
  C100     1.0000 0.80541  0.63391  0.92677  Biso   1.000  C
  C101     1.0000 0.63391  0.92677  0.63391  Biso   1.000  C
  C102     1.0000 0.63391  0.80541  0.63391  Biso   1.000  C
  C103     1.0000 0.80541  0.63391  0.63391  Biso   1.000  C
  C104     1.0000 0.92677  0.63391  0.63391  Biso   1.000  C
  C105     1.0000 0.63391  0.92677  0.80541  Biso   1.000  C
  C106     1.0000 0.63391  0.80541  0.92677  Biso   1.000  C
  O1       1.0000 0.49504  0.64768  0.33569  Biso   1.000  O
  O2       1.0000 0.49504  0.64768  0.50946  Biso   1.000  O
  O3       1.0000 0.32126  0.64768  0.50946  Biso   1.000  O
  O4       1.0000 0.49504  0.47391  0.50946  Biso   1.000  O
  O5       1.0000 0.91087  0.06354  0.09909  Biso   1.000  O
  O6       1.0000 0.91087  0.06354  0.92532  Biso   1.000  O
  O7       1.0000 0.91087  0.23731  0.92532  Biso   1.000  O
  O8       1.0000 0.08464  0.06354  0.92532  Biso   1.000  O
  O9       1.0000 0.35800  0.80862  0.15086  Biso   1.000  O
  O10      1.0000 0.65596  0.51066  0.67040  Biso   1.000  O
  O11      1.0000 0.13642  0.80862  0.37244  Biso   1.000  O
  O12      1.0000 0.65596  0.28908  0.67040  Biso   1.000  O
  O13      1.0000 0.35800  0.28908  0.67040  Biso   1.000  O
  O14      1.0000 0.65596  0.80862  0.15086  Biso   1.000  O
  O15      1.0000 0.13642  0.51066  0.67040  Biso   1.000  O
  O16      1.0000 0.65596  0.80862  0.37244  Biso   1.000  O
  O17      1.0000 0.35800  0.80862  0.67040  Biso   1.000  O
  O18      1.0000 0.65596  0.28908  0.37244  Biso   1.000  O
  O19      1.0000 0.13642  0.80862  0.67040  Biso   1.000  O
  O20      1.0000 0.65596  0.51066  0.15086  Biso   1.000  O
  O21      1.0000 0.74995  0.20056  0.28392  Biso   1.000  O
  O22      1.0000 0.04791  0.90260  0.76438  Biso   1.000  O
  O23      1.0000 0.74995  0.42214  0.06234  Biso   1.000  O
  O24      1.0000 0.26949  0.90260  0.76438  Biso   1.000  O
  O25      1.0000 0.26949  0.20056  0.76438  Biso   1.000  O
  O26      1.0000 0.74995  0.90260  0.28392  Biso   1.000  O
  O27      1.0000 0.04791  0.42214  0.76438  Biso   1.000  O
  O28      1.0000 0.74995  0.90260  0.06234  Biso   1.000  O
  O29      1.0000 0.74995  0.20056  0.76438  Biso   1.000  O
  O30      1.0000 0.26949  0.90260  0.06234  Biso   1.000  O
  O31      1.0000 0.74995  0.42214  0.76438  Biso   1.000  O
  O32      1.0000 0.04791  0.90260  0.28392  Biso   1.000  O
  O33      1.0000 0.29456  0.82699  0.17756  Biso   1.000  O
  O34      1.0000 0.67433  0.44722  0.68877  Biso   1.000  O
  O35      1.0000 0.16312  0.82699  0.30900  Biso   1.000  O
  O36      1.0000 0.67433  0.31578  0.68877  Biso   1.000  O
  O37      1.0000 0.29456  0.31578  0.68877  Biso   1.000  O
  O38      1.0000 0.67433  0.82699  0.17756  Biso   1.000  O
  O39      1.0000 0.16312  0.44722  0.68877  Biso   1.000  O
  O40      1.0000 0.67433  0.82699  0.30900  Biso   1.000  O
  O41      1.0000 0.29456  0.82699  0.68877  Biso   1.000  O
  O42      1.0000 0.67433  0.31578  0.30900  Biso   1.000  O
  O43      1.0000 0.16312  0.82699  0.68877  Biso   1.000  O
  O44      1.0000 0.67433  0.44722  0.17756  Biso   1.000  O
  O45      1.0000 0.73158  0.26400  0.25722  Biso   1.000  O
  O46      1.0000 0.11135  0.88423  0.74601  Biso   1.000  O
  O47      1.0000 0.73158  0.39544  0.12578  Biso   1.000  O
  O48      1.0000 0.24278  0.88423  0.74601  Biso   1.000  O
  O49      1.0000 0.24278  0.26400  0.74601  Biso   1.000  O
  O50      1.0000 0.73158  0.88423  0.25722  Biso   1.000  O
  O51      1.0000 0.11135  0.39544  0.74601  Biso   1.000  O
  O52      1.0000 0.73158  0.88423  0.12578  Biso   1.000  O
  O53      1.0000 0.73158  0.26400  0.74601  Biso   1.000  O
  O54      1.0000 0.24278  0.88423  0.12578  Biso   1.000  O
  O55      1.0000 0.73158  0.39544  0.74601  Biso   1.000  O
  O56      1.0000 0.11135  0.88423  0.25722  Biso   1.000  O
  O57      1.0000 0.25586  0.79997  0.27030  Biso   1.000  O
  O58      1.0000 0.31394  0.74188  0.32838  Biso   1.000  O
  O59      1.0000 0.64731  0.40852  0.66175  Biso   1.000  O
  O60      1.0000 0.58923  0.46660  0.60367  Biso   1.000  O
  O61      1.0000 0.25586  0.40852  0.66175  Biso   1.000  O
  O62      1.0000 0.31394  0.46660  0.60367  Biso   1.000  O
  O63      1.0000 0.64731  0.79997  0.27030  Biso   1.000  O
  O64      1.0000 0.58923  0.74188  0.32838  Biso   1.000  O
  O65      1.0000 0.25586  0.79997  0.66175  Biso   1.000  O
  O66      1.0000 0.31394  0.74188  0.60367  Biso   1.000  O
  O67      1.0000 0.64731  0.40852  0.27030  Biso   1.000  O
  O68      1.0000 0.58923  0.46660  0.32838  Biso   1.000  O
  O69      1.0000 0.75860  0.30270  0.16448  Biso   1.000  O
  O70      1.0000 0.81668  0.24462  0.10640  Biso   1.000  O
  O71      1.0000 0.15004  0.91125  0.77304  Biso   1.000  O
  O72      1.0000 0.09196  0.96933  0.83112  Biso   1.000  O
  O73      1.0000 0.15004  0.30270  0.77304  Biso   1.000  O
  O74      1.0000 0.09196  0.24462  0.83112  Biso   1.000  O
  O75      1.0000 0.75860  0.91125  0.16448  Biso   1.000  O
  O76      1.0000 0.81668  0.96933  0.10640  Biso   1.000  O
  O77      1.0000 0.75860  0.30270  0.77304  Biso   1.000  O
  O78      1.0000 0.81668  0.24462  0.83112  Biso   1.000  O
  O79      1.0000 0.15004  0.91125  0.16448  Biso   1.000  O
  O80      1.0000 0.09196  0.96933  0.10640  Biso   1.000  O
  O81      1.0000 0.45159  0.60424  0.46602  Biso   1.000  O
  O82      1.0000 0.95432  0.10698  0.96876  Biso   1.000  O
  O83      1.0000 0.39996  0.71996  0.28622  Biso   1.000  O
  O84      1.0000 0.56730  0.55262  0.58174  Biso   1.000  O
  O85      1.0000 0.27178  0.71996  0.41440  Biso   1.000  O
  O86      1.0000 0.56730  0.42444  0.58174  Biso   1.000  O
  O87      1.0000 0.39996  0.42444  0.58174  Biso   1.000  O
  O88      1.0000 0.56730  0.71996  0.28622  Biso   1.000  O
  O89      1.0000 0.27178  0.55262  0.58174  Biso   1.000  O
  O90      1.0000 0.56730  0.71996  0.41440  Biso   1.000  O
  O91      1.0000 0.39996  0.71996  0.58174  Biso   1.000  O
  O92      1.0000 0.56730  0.42444  0.41440  Biso   1.000  O
  O93      1.0000 0.27178  0.71996  0.58174  Biso   1.000  O
  O94      1.0000 0.56730  0.55262  0.28622  Biso   1.000  O
  O95      1.0000 0.83861  0.15860  0.14856  Biso   1.000  O
  O96      1.0000 0.00595  0.99126  0.85305  Biso   1.000  O
  O97      1.0000 0.83861  0.28678  0.02038  Biso   1.000  O
  O98      1.0000 0.13412  0.99126  0.85305  Biso   1.000  O
  O99      1.0000 0.13412  0.15860  0.85305  Biso   1.000  O
  O100     1.0000 0.83861  0.99126  0.14856  Biso   1.000  O
  O101     1.0000 0.00595  0.28678  0.85305  Biso   1.000  O
  O102     1.0000 0.83861  0.99126  0.02038  Biso   1.000  O
  O103     1.0000 0.83861  0.15860  0.85305  Biso   1.000  O
  O104     1.0000 0.13412  0.99126  0.02038  Biso   1.000  O
  O105     1.0000 0.83861  0.28678  0.85305  Biso   1.000  O
