data_image0
_cell_length_a       18.2789
_cell_length_b       18.2789
_cell_length_c       18.2789
_cell_angle_alpha    60
_cell_angle_beta     60
_cell_angle_gamma    60

_symmetry_space_group_name_H-M    "P 1"
_symmetry_int_tables_number       1

loop_
  _symmetry_equiv_pos_as_xyz
  'x, y, z'

loop_
  _atom_site_label
  _atom_site_occupancy
  _atom_site_fract_x
  _atom_site_fract_y
  _atom_site_fract_z
  _atom_site_thermal_displace_type
  _atom_site_B_iso_or_equiv
  _atom_site_type_symbol
  Zn1      1.0000 0.29348  0.29347  0.11958  Biso   1.000  Zn
  Zn2      1.0000 0.29348  0.29347  0.29347  Biso   1.000  Zn
  Zn3      1.0000 0.11959  0.29347  0.29347  Biso   1.000  Zn
  Zn4      1.0000 0.29348  0.11958  0.29347  Biso   1.000  Zn
  Zn5      1.0000 0.70652  0.70653  0.88042  Biso   1.000  Zn
  Zn6      1.0000 0.70652  0.70653  0.70653  Biso   1.000  Zn
  Zn7      1.0000 0.70652  0.88042  0.70653  Biso   1.000  Zn
  Zn8      1.0000 0.88041  0.70653  0.70653  Biso   1.000  Zn
  H1       1.0000 0.45520  0.45520  0.93520  Biso   1.000  H
  H2       1.0000 0.45520  0.45520  0.15440  Biso   1.000  H
  H3       1.0000 0.93520  0.15440  0.45520  Biso   1.000  H
  H4       1.0000 0.15440  0.93520  0.45520  Biso   1.000  H
  H5       1.0000 0.45520  0.93520  0.15440  Biso   1.000  H
  H6       1.0000 0.45520  0.15440  0.93520  Biso   1.000  H
  H7       1.0000 0.93520  0.45520  0.45520  Biso   1.000  H
  H8       1.0000 0.15440  0.45520  0.45520  Biso   1.000  H
  H9       1.0000 0.45520  0.15440  0.45520  Biso   1.000  H
  H10      1.0000 0.45520  0.93520  0.45520  Biso   1.000  H
  H11      1.0000 0.93520  0.45520  0.15440  Biso   1.000  H
  H12      1.0000 0.15440  0.45520  0.93520  Biso   1.000  H
  H13      1.0000 0.54480  0.54480  0.06480  Biso   1.000  H
  H14      1.0000 0.54480  0.54480  0.84560  Biso   1.000  H
  H15      1.0000 0.84560  0.06480  0.54480  Biso   1.000  H
  H16      1.0000 0.06480  0.84560  0.54480  Biso   1.000  H
  H17      1.0000 0.06480  0.54480  0.84560  Biso   1.000  H
  H18      1.0000 0.84560  0.54480  0.06480  Biso   1.000  H
  H19      1.0000 0.54480  0.06480  0.54480  Biso   1.000  H
  H20      1.0000 0.54480  0.84560  0.54480  Biso   1.000  H
  H21      1.0000 0.84560  0.54480  0.54480  Biso   1.000  H
  H22      1.0000 0.06480  0.54480  0.54480  Biso   1.000  H
  H23      1.0000 0.54480  0.06480  0.84560  Biso   1.000  H
  H24      1.0000 0.54480  0.84560  0.06480  Biso   1.000  H
  C1       1.0000 0.47338  0.47338  0.96214  Biso   1.000  C
  C2       1.0000 0.47338  0.47338  0.09110  Biso   1.000  C
  C3       1.0000 0.96214  0.09110  0.47338  Biso   1.000  C
  C4       1.0000 0.09110  0.96214  0.47338  Biso   1.000  C
  C5       1.0000 0.47338  0.96214  0.09110  Biso   1.000  C
  C6       1.0000 0.47338  0.09110  0.96214  Biso   1.000  C
  C7       1.0000 0.96214  0.47338  0.47338  Biso   1.000  C
  C8       1.0000 0.09110  0.47338  0.47338  Biso   1.000  C
  C9       1.0000 0.47338  0.09110  0.47338  Biso   1.000  C
  C10      1.0000 0.47338  0.96214  0.47338  Biso   1.000  C
  C11      1.0000 0.96214  0.47338  0.09110  Biso   1.000  C
  C12      1.0000 0.09110  0.47338  0.96214  Biso   1.000  C
  C13      1.0000 0.52662  0.52662  0.03786  Biso   1.000  C
  C14      1.0000 0.52662  0.52662  0.90890  Biso   1.000  C
  C15      1.0000 0.90890  0.03786  0.52662  Biso   1.000  C
  C16      1.0000 0.03786  0.90890  0.52662  Biso   1.000  C
  C17      1.0000 0.03786  0.52662  0.90890  Biso   1.000  C
  C18      1.0000 0.90890  0.52662  0.03786  Biso   1.000  C
  C19      1.0000 0.52662  0.03786  0.52662  Biso   1.000  C
  C20      1.0000 0.52662  0.90890  0.52662  Biso   1.000  C
  C21      1.0000 0.90890  0.52662  0.52662  Biso   1.000  C
  C22      1.0000 0.03786  0.52662  0.52662  Biso   1.000  C
  C23      1.0000 0.52662  0.03786  0.90890  Biso   1.000  C
  C24      1.0000 0.52662  0.90890  0.03786  Biso   1.000  C
  C25      1.0000 0.38853  0.38853  0.11147  Biso   1.000  C
  C26      1.0000 0.44615  0.44615  0.05385  Biso   1.000  C
  C27      1.0000 0.11147  0.11147  0.38853  Biso   1.000  C
  C28      1.0000 0.05385  0.05385  0.44615  Biso   1.000  C
  C29      1.0000 0.38853  0.11147  0.11147  Biso   1.000  C
  C30      1.0000 0.44615  0.05385  0.05385  Biso   1.000  C
  C31      1.0000 0.11147  0.38853  0.38853  Biso   1.000  C
  C32      1.0000 0.05385  0.44615  0.44615  Biso   1.000  C
  C33      1.0000 0.38853  0.11147  0.38853  Biso   1.000  C
  C34      1.0000 0.44615  0.05385  0.44615  Biso   1.000  C
  C35      1.0000 0.11147  0.38853  0.11147  Biso   1.000  C
  C36      1.0000 0.05385  0.44615  0.05385  Biso   1.000  C
  C37      1.0000 0.61147  0.61147  0.88853  Biso   1.000  C
  C38      1.0000 0.55385  0.55385  0.94615  Biso   1.000  C
  C39      1.0000 0.88853  0.88853  0.61147  Biso   1.000  C
  C40      1.0000 0.94615  0.94615  0.55385  Biso   1.000  C
  C41      1.0000 0.88853  0.61147  0.88853  Biso   1.000  C
  C42      1.0000 0.94615  0.55385  0.94615  Biso   1.000  C
  C43      1.0000 0.61147  0.88853  0.61147  Biso   1.000  C
  C44      1.0000 0.55385  0.94615  0.55385  Biso   1.000  C
  C45      1.0000 0.88853  0.61147  0.61147  Biso   1.000  C
  C46      1.0000 0.94615  0.55385  0.55385  Biso   1.000  C
  C47      1.0000 0.61147  0.88853  0.88853  Biso   1.000  C
  C48      1.0000 0.55385  0.94615  0.94615  Biso   1.000  C
  O1       1.0000 0.25000  0.25000  0.25000  Biso   1.000  O
  O2       1.0000 0.75000  0.75000  0.75000  Biso   1.000  O
  O3       1.0000 0.36624  0.36624  0.07286  Biso   1.000  O
  O4       1.0000 0.36624  0.36624  0.19466  Biso   1.000  O
  O5       1.0000 0.07286  0.19466  0.36624  Biso   1.000  O
  O6       1.0000 0.19466  0.07286  0.36624  Biso   1.000  O
  O7       1.0000 0.36624  0.07286  0.19466  Biso   1.000  O
  O8       1.0000 0.36624  0.19466  0.07286  Biso   1.000  O
  O9       1.0000 0.07286  0.36624  0.36624  Biso   1.000  O
  O10      1.0000 0.19466  0.36624  0.36624  Biso   1.000  O
  O11      1.0000 0.36624  0.19466  0.36624  Biso   1.000  O
  O12      1.0000 0.36624  0.07286  0.36624  Biso   1.000  O
  O13      1.0000 0.07286  0.36624  0.19466  Biso   1.000  O
  O14      1.0000 0.19466  0.36624  0.07286  Biso   1.000  O
  O15      1.0000 0.63376  0.63376  0.92714  Biso   1.000  O
  O16      1.0000 0.63376  0.63376  0.80534  Biso   1.000  O
  O17      1.0000 0.80534  0.92714  0.63376  Biso   1.000  O
  O18      1.0000 0.92714  0.80534  0.63376  Biso   1.000  O
  O19      1.0000 0.92714  0.63376  0.80534  Biso   1.000  O
  O20      1.0000 0.80534  0.63376  0.92714  Biso   1.000  O
  O21      1.0000 0.63376  0.92714  0.63376  Biso   1.000  O
  O22      1.0000 0.63376  0.80534  0.63376  Biso   1.000  O
  O23      1.0000 0.80534  0.63376  0.63376  Biso   1.000  O
  O24      1.0000 0.92714  0.63376  0.63376  Biso   1.000  O
  O25      1.0000 0.63376  0.92714  0.80534  Biso   1.000  O
  O26      1.0000 0.63376  0.80534  0.92714  Biso   1.000  O
  Zn9      1.0000 0.50251  0.52004  0.33502  Biso   1.000  Zn
  Zn10     1.0000 0.50251  0.52004  0.50886  Biso   1.000  Zn
  Zn11     1.0000 0.32866  0.52004  0.50886  Biso   1.000  Zn
  Zn12     1.0000 0.50251  0.34620  0.50886  Biso   1.000  Zn
  Zn13     1.0000 0.91467  0.93221  0.09487  Biso   1.000  Zn
  Zn14     1.0000 0.91467  0.93221  0.92102  Biso   1.000  Zn
  Zn15     1.0000 0.91467  0.10605  0.92102  Biso   1.000  Zn
  Zn16     1.0000 0.08851  0.93221  0.92102  Biso   1.000  Zn
  H25      1.0000 0.66447  0.68200  0.15034  Biso   1.000  H
  H26      1.0000 0.66447  0.68200  0.36778  Biso   1.000  H
  H27      1.0000 0.14399  0.37896  0.67082  Biso   1.000  H
  H28      1.0000 0.36142  0.16153  0.67082  Biso   1.000  H
  H29      1.0000 0.66447  0.16153  0.36778  Biso   1.000  H
  H30      1.0000 0.66447  0.37896  0.15034  Biso   1.000  H
  H31      1.0000 0.14399  0.68200  0.67082  Biso   1.000  H
  H32      1.0000 0.36142  0.68200  0.67082  Biso   1.000  H
  H33      1.0000 0.66447  0.37896  0.67082  Biso   1.000  H
  H34      1.0000 0.66447  0.16153  0.67082  Biso   1.000  H
  H35      1.0000 0.14399  0.68200  0.36778  Biso   1.000  H
  H36      1.0000 0.36142  0.68200  0.15034  Biso   1.000  H
  H37      1.0000 0.75271  0.77024  0.27954  Biso   1.000  H
  H38      1.0000 0.75271  0.77024  0.06211  Biso   1.000  H
  H39      1.0000 0.05575  0.29072  0.75906  Biso   1.000  H
  H40      1.0000 0.27319  0.07329  0.75906  Biso   1.000  H
  H41      1.0000 0.27319  0.77024  0.06211  Biso   1.000  H
  H42      1.0000 0.05575  0.77024  0.27954  Biso   1.000  H
  H43      1.0000 0.75271  0.29072  0.75906  Biso   1.000  H
  H44      1.0000 0.75271  0.07329  0.75906  Biso   1.000  H
  H45      1.0000 0.05575  0.77024  0.75906  Biso   1.000  H
  H46      1.0000 0.27319  0.77024  0.75906  Biso   1.000  H
  H47      1.0000 0.75271  0.29072  0.06211  Biso   1.000  H
  H48      1.0000 0.75271  0.07329  0.27954  Biso   1.000  H
  C49      1.0000 0.68209  0.69962  0.17712  Biso   1.000  C
  C50      1.0000 0.68209  0.69962  0.30576  Biso   1.000  C
  C51      1.0000 0.17077  0.31694  0.68844  Biso   1.000  C
  C52      1.0000 0.29941  0.18831  0.68844  Biso   1.000  C
  C53      1.0000 0.68209  0.18831  0.30576  Biso   1.000  C
  C54      1.0000 0.68209  0.31694  0.17712  Biso   1.000  C
  C55      1.0000 0.17077  0.69962  0.68844  Biso   1.000  C
  C56      1.0000 0.29941  0.69962  0.68844  Biso   1.000  C
  C57      1.0000 0.68209  0.31694  0.68844  Biso   1.000  C
  C58      1.0000 0.68209  0.18831  0.68844  Biso   1.000  C
  C59      1.0000 0.17077  0.69962  0.30576  Biso   1.000  C
  C60      1.0000 0.29941  0.69962  0.17712  Biso   1.000  C
  C61      1.0000 0.73509  0.75262  0.25276  Biso   1.000  C
  C62      1.0000 0.73509  0.75262  0.12412  Biso   1.000  C
  C63      1.0000 0.11777  0.26394  0.74144  Biso   1.000  C
  C64      1.0000 0.24640  0.13530  0.74144  Biso   1.000  C
  C65      1.0000 0.24640  0.75262  0.12412  Biso   1.000  C
  C66      1.0000 0.11777  0.75262  0.25276  Biso   1.000  C
  C67      1.0000 0.73509  0.26394  0.74144  Biso   1.000  C
  C68      1.0000 0.73509  0.13530  0.74144  Biso   1.000  C
  C69      1.0000 0.11777  0.75262  0.74144  Biso   1.000  C
  C70      1.0000 0.24640  0.75262  0.74144  Biso   1.000  C
  C71      1.0000 0.73509  0.26394  0.12412  Biso   1.000  C
  C72      1.0000 0.73509  0.13530  0.25276  Biso   1.000  C
  C73      1.0000 0.59736  0.61490  0.32708  Biso   1.000  C
  C74      1.0000 0.65489  0.67242  0.26956  Biso   1.000  C
  C75      1.0000 0.32073  0.33826  0.60371  Biso   1.000  C
  C76      1.0000 0.26320  0.28074  0.66124  Biso   1.000  C
  C77      1.0000 0.59736  0.33826  0.32708  Biso   1.000  C
  C78      1.0000 0.65489  0.28074  0.26956  Biso   1.000  C
  C79      1.0000 0.32073  0.61490  0.60371  Biso   1.000  C
  C80      1.0000 0.26320  0.67242  0.66124  Biso   1.000  C
  C81      1.0000 0.59736  0.33826  0.60371  Biso   1.000  C
  C82      1.0000 0.65489  0.28074  0.66124  Biso   1.000  C
  C83      1.0000 0.32073  0.61490  0.32708  Biso   1.000  C
  C84      1.0000 0.26320  0.67242  0.26956  Biso   1.000  C
  C85      1.0000 0.81982  0.83735  0.10280  Biso   1.000  C
  C86      1.0000 0.76229  0.77982  0.16033  Biso   1.000  C
  C87      1.0000 0.09645  0.11398  0.82617  Biso   1.000  C
  C88      1.0000 0.15397  0.17151  0.76864  Biso   1.000  C
  C89      1.0000 0.09645  0.83735  0.10280  Biso   1.000  C
  C90      1.0000 0.15397  0.77982  0.16033  Biso   1.000  C
  C91      1.0000 0.81982  0.11398  0.82617  Biso   1.000  C
  C92      1.0000 0.76229  0.17151  0.76864  Biso   1.000  C
  C93      1.0000 0.09645  0.83735  0.82617  Biso   1.000  C
  C94      1.0000 0.15397  0.77982  0.76864  Biso   1.000  C
  C95      1.0000 0.81982  0.11398  0.10280  Biso   1.000  C
  C96      1.0000 0.76229  0.17151  0.16033  Biso   1.000  C
  O27      1.0000 0.45905  0.47658  0.46540  Biso   1.000  O
  O28      1.0000 0.95813  0.97567  0.96448  Biso   1.000  O
  O29      1.0000 0.57486  0.59240  0.28883  Biso   1.000  O
  O30      1.0000 0.57486  0.59240  0.41033  Biso   1.000  O
  O31      1.0000 0.28248  0.42151  0.58122  Biso   1.000  O
  O32      1.0000 0.40398  0.30001  0.58122  Biso   1.000  O
  O33      1.0000 0.57486  0.30001  0.41033  Biso   1.000  O
  O34      1.0000 0.57486  0.42151  0.28883  Biso   1.000  O
  O35      1.0000 0.28248  0.59240  0.58122  Biso   1.000  O
  O36      1.0000 0.40398  0.59240  0.58122  Biso   1.000  O
  O37      1.0000 0.57486  0.42151  0.58122  Biso   1.000  O
  O38      1.0000 0.57486  0.30001  0.58122  Biso   1.000  O
  O39      1.0000 0.28248  0.59240  0.41033  Biso   1.000  O
  O40      1.0000 0.40398  0.59240  0.28883  Biso   1.000  O
  O41      1.0000 0.84231  0.85985  0.14105  Biso   1.000  O
  O42      1.0000 0.84231  0.85985  0.01955  Biso   1.000  O
  O43      1.0000 0.01320  0.15223  0.84867  Biso   1.000  O
  O44      1.0000 0.13470  0.03074  0.84867  Biso   1.000  O
  O45      1.0000 0.13470  0.85985  0.01955  Biso   1.000  O
  O46      1.0000 0.01320  0.85985  0.14105  Biso   1.000  O
  O47      1.0000 0.84231  0.15223  0.84867  Biso   1.000  O
  O48      1.0000 0.84231  0.03074  0.84867  Biso   1.000  O
  O49      1.0000 0.01320  0.85985  0.84867  Biso   1.000  O
  O50      1.0000 0.13470  0.85985  0.84867  Biso   1.000  O
  O51      1.0000 0.84231  0.15223  0.01955  Biso   1.000  O
