data_image0
_cell_length_a       18.2965
_cell_length_b       18.2965
_cell_length_c       18.2965
_cell_angle_alpha    60
_cell_angle_beta     60
_cell_angle_gamma    60

_symmetry_space_group_name_H-M    "P 1"
_symmetry_int_tables_number       1

loop_
  _symmetry_equiv_pos_as_xyz
  'x, y, z'

loop_
  _atom_site_label
  _atom_site_occupancy
  _atom_site_fract_x
  _atom_site_fract_y
  _atom_site_fract_z
  _atom_site_thermal_displace_type
  _atom_site_B_iso_or_equiv
  _atom_site_type_symbol
  C1       1.0000 0.29344  0.29343  0.11970  Biso   1.000  C
  C2       1.0000 0.29344  0.29343  0.29343  Biso   1.000  C
  C3       1.0000 0.11971  0.29343  0.29343  Biso   1.000  C
  C4       1.0000 0.29344  0.11970  0.29343  Biso   1.000  C
  C5       1.0000 0.70656  0.70657  0.88030  Biso   1.000  C
  C6       1.0000 0.70656  0.70657  0.70657  Biso   1.000  C
  C7       1.0000 0.70656  0.88030  0.70657  Biso   1.000  C
  C8       1.0000 0.88029  0.70657  0.70657  Biso   1.000  C
  C9       1.0000 0.45520  0.45520  0.93480  Biso   1.000  C
  C10      1.0000 0.45520  0.45520  0.15480  Biso   1.000  C
  C11      1.0000 0.93480  0.15480  0.45520  Biso   1.000  C
  C12      1.0000 0.15480  0.93480  0.45520  Biso   1.000  C
  C13      1.0000 0.45520  0.93480  0.15480  Biso   1.000  C
  C14      1.0000 0.45520  0.15480  0.93480  Biso   1.000  C
  C15      1.0000 0.93480  0.45520  0.45520  Biso   1.000  C
  C16      1.0000 0.15480  0.45520  0.45520  Biso   1.000  C
  C17      1.0000 0.45520  0.15480  0.45520  Biso   1.000  C
  C18      1.0000 0.45520  0.93480  0.45520  Biso   1.000  C
  C19      1.0000 0.93480  0.45520  0.15480  Biso   1.000  C
  C20      1.0000 0.15480  0.45520  0.93480  Biso   1.000  C
  C21      1.0000 0.54480  0.54480  0.06520  Biso   1.000  C
  C22      1.0000 0.54480  0.54480  0.84520  Biso   1.000  C
  C23      1.0000 0.84520  0.06520  0.54480  Biso   1.000  C
  C24      1.0000 0.06520  0.84520  0.54480  Biso   1.000  C
  C25      1.0000 0.06520  0.54480  0.84520  Biso   1.000  C
  C26      1.0000 0.84520  0.54480  0.06520  Biso   1.000  C
  C27      1.0000 0.54480  0.06520  0.54480  Biso   1.000  C
  C28      1.0000 0.54480  0.84520  0.54480  Biso   1.000  C
  C29      1.0000 0.84520  0.54480  0.54480  Biso   1.000  C
  C30      1.0000 0.06520  0.54480  0.54480  Biso   1.000  C
  C31      1.0000 0.54480  0.06520  0.84520  Biso   1.000  C
  C32      1.0000 0.54480  0.84520  0.06520  Biso   1.000  C
  C33      1.0000 0.47339  0.47339  0.96175  Biso   1.000  C
  C34      1.0000 0.47339  0.47339  0.09147  Biso   1.000  C
  C35      1.0000 0.96175  0.09147  0.47339  Biso   1.000  C
  C36      1.0000 0.09147  0.96175  0.47339  Biso   1.000  C
  C37      1.0000 0.47339  0.96175  0.09147  Biso   1.000  C
  C38      1.0000 0.47339  0.09147  0.96175  Biso   1.000  C
  C39      1.0000 0.96175  0.47339  0.47339  Biso   1.000  C
  C40      1.0000 0.09147  0.47339  0.47339  Biso   1.000  C
  C41      1.0000 0.47339  0.09147  0.47339  Biso   1.000  C
  C42      1.0000 0.47339  0.96175  0.47339  Biso   1.000  C
  C43      1.0000 0.96175  0.47339  0.09147  Biso   1.000  C
  C44      1.0000 0.09147  0.47339  0.96175  Biso   1.000  C
  C45      1.0000 0.52661  0.52661  0.03825  Biso   1.000  C
  C46      1.0000 0.52661  0.52661  0.90853  Biso   1.000  C
  C47      1.0000 0.90853  0.03825  0.52661  Biso   1.000  C
  C48      1.0000 0.03825  0.90853  0.52661  Biso   1.000  C
  C49      1.0000 0.03825  0.52661  0.90853  Biso   1.000  C
  C50      1.0000 0.90853  0.52661  0.03825  Biso   1.000  C
  C51      1.0000 0.52661  0.03825  0.52661  Biso   1.000  C
  C52      1.0000 0.52661  0.90853  0.52661  Biso   1.000  C
  C53      1.0000 0.90853  0.52661  0.52661  Biso   1.000  C
  C54      1.0000 0.03825  0.52661  0.52661  Biso   1.000  C
  C55      1.0000 0.52661  0.03825  0.90853  Biso   1.000  C
  C56      1.0000 0.52661  0.90853  0.03825  Biso   1.000  C
  C57      1.0000 0.38840  0.38840  0.11160  Biso   1.000  C
  C58      1.0000 0.44637  0.44637  0.05363  Biso   1.000  C
  C59      1.0000 0.11160  0.11160  0.38840  Biso   1.000  C
  C60      1.0000 0.05363  0.05363  0.44637  Biso   1.000  C
  C61      1.0000 0.38840  0.11160  0.11160  Biso   1.000  C
  C62      1.0000 0.44637  0.05363  0.05363  Biso   1.000  C
  C63      1.0000 0.11160  0.38840  0.38840  Biso   1.000  C
  C64      1.0000 0.05363  0.44637  0.44637  Biso   1.000  C
  C65      1.0000 0.38840  0.11160  0.38840  Biso   1.000  C
  C66      1.0000 0.44637  0.05363  0.44637  Biso   1.000  C
  C67      1.0000 0.11160  0.38840  0.11160  Biso   1.000  C
  C68      1.0000 0.05363  0.44637  0.05363  Biso   1.000  C
  C69      1.0000 0.61160  0.61160  0.88840  Biso   1.000  C
  C70      1.0000 0.55363  0.55363  0.94637  Biso   1.000  C
  C71      1.0000 0.88840  0.88840  0.61160  Biso   1.000  C
  C72      1.0000 0.94637  0.94637  0.55363  Biso   1.000  C
  C73      1.0000 0.88840  0.61160  0.88840  Biso   1.000  C
  C74      1.0000 0.94637  0.55363  0.94637  Biso   1.000  C
  C75      1.0000 0.61160  0.88840  0.61160  Biso   1.000  C
  C76      1.0000 0.55363  0.94637  0.55363  Biso   1.000  C
  C77      1.0000 0.88840  0.61160  0.61160  Biso   1.000  C
  C78      1.0000 0.94637  0.55363  0.55363  Biso   1.000  C
  C79      1.0000 0.61160  0.88840  0.88840  Biso   1.000  C
  C80      1.0000 0.55363  0.94637  0.94637  Biso   1.000  C
  C81      1.0000 0.25000  0.25000  0.25000  Biso   1.000  C
  C82      1.0000 0.75000  0.75000  0.75000  Biso   1.000  C
  C83      1.0000 0.36613  0.36613  0.07281  Biso   1.000  C
  C84      1.0000 0.36613  0.36613  0.19493  Biso   1.000  C
  C85      1.0000 0.07281  0.19493  0.36613  Biso   1.000  C
  C86      1.0000 0.19493  0.07281  0.36613  Biso   1.000  C
  C87      1.0000 0.36613  0.07281  0.19493  Biso   1.000  C
  C88      1.0000 0.36613  0.19493  0.07281  Biso   1.000  C
  C89      1.0000 0.07281  0.36613  0.36613  Biso   1.000  C
  C90      1.0000 0.19493  0.36613  0.36613  Biso   1.000  C
  C91      1.0000 0.36613  0.19493  0.36613  Biso   1.000  C
  C92      1.0000 0.36613  0.07281  0.36613  Biso   1.000  C
  C93      1.0000 0.07281  0.36613  0.19493  Biso   1.000  C
  C94      1.0000 0.19493  0.36613  0.07281  Biso   1.000  C
  C95      1.0000 0.63387  0.63387  0.92719  Biso   1.000  C
  C96      1.0000 0.63387  0.63387  0.80507  Biso   1.000  C
  C97      1.0000 0.80507  0.92719  0.63387  Biso   1.000  C
  C98      1.0000 0.92719  0.80507  0.63387  Biso   1.000  C
  C99      1.0000 0.92719  0.63387  0.80507  Biso   1.000  C
  C100     1.0000 0.80507  0.63387  0.92719  Biso   1.000  C
  C101     1.0000 0.63387  0.92719  0.63387  Biso   1.000  C
  C102     1.0000 0.63387  0.80507  0.63387  Biso   1.000  C
  C103     1.0000 0.80507  0.63387  0.63387  Biso   1.000  C
  C104     1.0000 0.92719  0.63387  0.63387  Biso   1.000  C
  C105     1.0000 0.63387  0.92719  0.80507  Biso   1.000  C
  C106     1.0000 0.63387  0.80507  0.92719  Biso   1.000  C
  O1       1.0000 0.99176  0.97214  0.87020  Biso   1.000  O
  O2       1.0000 0.99181  0.14404  0.87015  Biso   1.000  O
  O3       1.0000 0.16371  0.97214  0.87020  Biso   1.000  O
  O4       1.0000 0.99181  0.97209  0.04210  Biso   1.000  O
  O5       1.0000 0.57379  0.56207  0.46014  Biso   1.000  O
  O6       1.0000 0.57374  0.39016  0.46019  Biso   1.000  O
  O7       1.0000 0.40184  0.56207  0.46014  Biso   1.000  O
  O8       1.0000 0.57374  0.56211  0.28824  Biso   1.000  O
  O9       1.0000 0.81277  0.17143  0.69216  Biso   1.000  O
  O10      1.0000 0.19131  0.79389  0.69017  Biso   1.000  O
  O11      1.0000 0.81218  0.79488  0.06950  Biso   1.000  O
  O12      1.0000 0.81378  0.30978  0.69117  Biso   1.000  O
  O13      1.0000 0.81179  0.31079  0.06970  Biso   1.000  O
  O14      1.0000 0.19113  0.30959  0.69057  Biso   1.000  O
  O15      1.0000 0.32145  0.79410  0.06949  Biso   1.000  O
  O16      1.0000 0.32245  0.79210  0.69195  Biso   1.000  O
  O17      1.0000 0.32126  0.17144  0.69295  Biso   1.000  O
  O18      1.0000 0.18309  0.79310  0.20786  Biso   1.000  O
  O19      1.0000 0.80555  0.17164  0.20886  Biso   1.000  O
  O20      1.0000 0.80655  0.79249  0.20767  Biso   1.000  O
  O21      1.0000 0.75278  0.36278  0.63818  Biso   1.000  O
  O22      1.0000 0.37424  0.74032  0.64017  Biso   1.000  O
  O23      1.0000 0.75338  0.73932  0.26084  Biso   1.000  O
  O24      1.0000 0.75177  0.22442  0.63917  Biso   1.000  O
  O25      1.0000 0.75376  0.22342  0.26064  Biso   1.000  O
  O26      1.0000 0.37443  0.22461  0.63978  Biso   1.000  O
  O27      1.0000 0.24410  0.74011  0.26085  Biso   1.000  O
  O28      1.0000 0.24310  0.74211  0.63839  Biso   1.000  O
  O29      1.0000 0.24429  0.36277  0.63739  Biso   1.000  O
  O30      1.0000 0.38246  0.74111  0.12249  Biso   1.000  O
  O31      1.0000 0.76001  0.36257  0.12148  Biso   1.000  O
  O32      1.0000 0.75901  0.74171  0.12267  Biso   1.000  O
  O33      1.0000 0.84014  0.20973  0.71854  Biso   1.000  O
  O34      1.0000 0.89835  0.15152  0.77675  Biso   1.000  O
  O35      1.0000 0.22940  0.82048  0.10779  Biso   1.000  O
  O36      1.0000 0.17119  0.87869  0.04958  Biso   1.000  O
  O37      1.0000 0.72541  0.32447  0.61180  Biso   1.000  O
  O38      1.0000 0.66720  0.38268  0.55359  Biso   1.000  O
  O39      1.0000 0.33615  0.71373  0.22255  Biso   1.000  O
  O40      1.0000 0.39436  0.65552  0.28076  Biso   1.000  O
  O41      1.0000 0.83995  0.82028  0.10799  Biso   1.000  O
  O42      1.0000 0.89788  0.87821  0.05006  Biso   1.000  O
  O43      1.0000 0.22960  0.20993  0.71834  Biso   1.000  O
  O44      1.0000 0.17167  0.15200  0.77627  Biso   1.000  O
  O45      1.0000 0.72560  0.71393  0.22235  Biso   1.000  O
  O46      1.0000 0.66767  0.65600  0.28028  Biso   1.000  O
  O47      1.0000 0.33596  0.32428  0.61200  Biso   1.000  O
  O48      1.0000 0.39389  0.38221  0.55407  Biso   1.000  O
  O49      1.0000 0.22980  0.82008  0.71814  Biso   1.000  O
  O50      1.0000 0.17187  0.87801  0.77607  Biso   1.000  O
  O51      1.0000 0.83974  0.21013  0.10819  Biso   1.000  O
  O52      1.0000 0.89768  0.15220  0.05026  Biso   1.000  O
  O53      1.0000 0.33575  0.71413  0.61220  Biso   1.000  O
  O54      1.0000 0.39368  0.65620  0.55427  Biso   1.000  O
  O55      1.0000 0.72581  0.32407  0.22215  Biso   1.000  O
  O56      1.0000 0.66787  0.38201  0.28008  Biso   1.000  O
  O57      1.0000 0.92077  0.06796  0.79758  Biso   1.000  O
  O58      1.0000 0.91885  0.90111  0.96685  Biso   1.000  O
  O59      1.0000 0.08721  0.90075  0.79800  Biso   1.000  O
  O60      1.0000 0.91918  0.19184  0.79917  Biso   1.000  O
  O61      1.0000 0.08846  0.19134  0.79724  Biso   1.000  O
  O62      1.0000 0.91960  0.19220  0.96560  Biso   1.000  O
  O63      1.0000 0.21151  0.89952  0.96602  Biso   1.000  O
  O64      1.0000 0.21101  0.06879  0.79917  Biso   1.000  O
  O65      1.0000 0.21187  0.89993  0.79881  Biso   1.000  O
  O66      1.0000 0.08763  0.90111  0.08990  Biso   1.000  O
  O67      1.0000 0.92078  0.89918  0.08940  Biso   1.000  O
  O68      1.0000 0.92042  0.06754  0.09026  Biso   1.000  O
  O69      1.0000 0.64478  0.46625  0.53276  Biso   1.000  O
  O70      1.0000 0.64670  0.63310  0.36349  Biso   1.000  O
  O71      1.0000 0.47834  0.63346  0.53234  Biso   1.000  O
  O72      1.0000 0.64637  0.34237  0.53117  Biso   1.000  O
  O73      1.0000 0.47710  0.34286  0.53310  Biso   1.000  O
  O74      1.0000 0.64595  0.34201  0.36474  Biso   1.000  O
  O75      1.0000 0.35404  0.63469  0.36432  Biso   1.000  O
  O76      1.0000 0.35454  0.46542  0.53117  Biso   1.000  O
  O77      1.0000 0.35369  0.63427  0.53153  Biso   1.000  O
  O78      1.0000 0.47792  0.63310  0.24044  Biso   1.000  O
  O79      1.0000 0.64478  0.63503  0.24094  Biso   1.000  O
  O80      1.0000 0.64514  0.46666  0.24009  Biso   1.000  O
  O81      1.0000 0.03477  0.01511  0.91317  Biso   1.000  O
  O82      1.0000 0.53078  0.51910  0.41717  Biso   1.000  O
  O83      1.0000 0.11533  0.81665  0.71147  Biso   1.000  O
  O84      1.0000 0.35438  0.81340  0.71472  Biso   1.000  O
  O85      1.0000 0.45022  0.71755  0.61887  Biso   1.000  O
  O86      1.0000 0.21118  0.72081  0.61562  Biso   1.000  O
  O87      1.0000 0.35318  0.09547  0.71596  Biso   1.000  O
  O88      1.0000 0.45040  0.19269  0.61874  Biso   1.000  O
  O89      1.0000 0.83322  0.81790  0.99353  Biso   1.000  O
  O90      1.0000 0.73599  0.72067  0.09075  Biso   1.000  O
  O91      1.0000 0.83622  0.34172  0.71279  Biso   1.000  O
  O92      1.0000 0.83309  0.34271  0.99372  Biso   1.000  O
  O93      1.0000 0.45844  0.71949  0.09055  Biso   1.000  O
  O94      1.0000 0.73724  0.43856  0.08956  Biso   1.000  O
  O95      1.0000 0.11515  0.34152  0.71161  Biso   1.000  O
  O96      1.0000 0.21237  0.43874  0.61438  Biso   1.000  O
  O97      1.0000 0.82956  0.81354  0.23959  Biso   1.000  O
  O98      1.0000 0.73234  0.71631  0.33681  Biso   1.000  O
  O99      1.0000 0.21217  0.71767  0.33683  Biso   1.000  O
  O100     1.0000 0.82831  0.09565  0.24078  Biso   1.000  O
  O101     1.0000 0.73247  0.19150  0.33663  Biso   1.000  O
  O102     1.0000 0.10711  0.81472  0.23979  Biso   1.000  O
  O103     1.0000 0.72933  0.19249  0.61756  Biso   1.000  O
  O104     1.0000 0.83439  0.09545  0.71460  Biso   1.000  O
  O105     1.0000 0.73116  0.43876  0.61574  Biso   1.000  O
