data_image0
_cell_length_a       18.2205
_cell_length_b       18.2205
_cell_length_c       18.2205
_cell_angle_alpha    60
_cell_angle_beta     60
_cell_angle_gamma    60

_symmetry_space_group_name_H-M    "P 1"
_symmetry_int_tables_number       1

loop_
  _symmetry_equiv_pos_as_xyz
  'x, y, z'

loop_
  _atom_site_label
  _atom_site_occupancy
  _atom_site_fract_x
  _atom_site_fract_y
  _atom_site_fract_z
  _atom_site_thermal_displace_type
  _atom_site_B_iso_or_equiv
  _atom_site_type_symbol
  C1       1.0000 0.29361  0.29361  0.11917  Biso   1.000  C
  C2       1.0000 0.29361  0.29361  0.29361  Biso   1.000  C
  C3       1.0000 0.11917  0.29361  0.29361  Biso   1.000  C
  C4       1.0000 0.29361  0.11917  0.29361  Biso   1.000  C
  C5       1.0000 0.70639  0.70639  0.88083  Biso   1.000  C
  C6       1.0000 0.70639  0.70639  0.70639  Biso   1.000  C
  C7       1.0000 0.70639  0.88083  0.70639  Biso   1.000  C
  C8       1.0000 0.88083  0.70639  0.70639  Biso   1.000  C
  C9       1.0000 0.45580  0.45580  0.93700  Biso   1.000  C
  C10      1.0000 0.45580  0.45580  0.15140  Biso   1.000  C
  C11      1.0000 0.93700  0.15140  0.45580  Biso   1.000  C
  C12      1.0000 0.15140  0.93700  0.45580  Biso   1.000  C
  C13      1.0000 0.45580  0.93700  0.15140  Biso   1.000  C
  C14      1.0000 0.45580  0.15140  0.93700  Biso   1.000  C
  C15      1.0000 0.93700  0.45580  0.45580  Biso   1.000  C
  C16      1.0000 0.15140  0.45580  0.45580  Biso   1.000  C
  C17      1.0000 0.45580  0.15140  0.45580  Biso   1.000  C
  C18      1.0000 0.45580  0.93700  0.45580  Biso   1.000  C
  C19      1.0000 0.93700  0.45580  0.15140  Biso   1.000  C
  C20      1.0000 0.15140  0.45580  0.93700  Biso   1.000  C
  C21      1.0000 0.54420  0.54420  0.06300  Biso   1.000  C
  C22      1.0000 0.54420  0.54420  0.84860  Biso   1.000  C
  C23      1.0000 0.84860  0.06300  0.54420  Biso   1.000  C
  C24      1.0000 0.06300  0.84860  0.54420  Biso   1.000  C
  C25      1.0000 0.06300  0.54420  0.84860  Biso   1.000  C
  C26      1.0000 0.84860  0.54420  0.06300  Biso   1.000  C
  C27      1.0000 0.54420  0.06300  0.54420  Biso   1.000  C
  C28      1.0000 0.54420  0.84860  0.54420  Biso   1.000  C
  C29      1.0000 0.84860  0.54420  0.54420  Biso   1.000  C
  C30      1.0000 0.06300  0.54420  0.54420  Biso   1.000  C
  C31      1.0000 0.54420  0.06300  0.84860  Biso   1.000  C
  C32      1.0000 0.54420  0.84860  0.06300  Biso   1.000  C
  C33      1.0000 0.47350  0.47350  0.96390  Biso   1.000  C
  C34      1.0000 0.47350  0.47350  0.08910  Biso   1.000  C
  C35      1.0000 0.96390  0.08910  0.47350  Biso   1.000  C
  C36      1.0000 0.08910  0.96390  0.47350  Biso   1.000  C
  C37      1.0000 0.47350  0.96390  0.08910  Biso   1.000  C
  C38      1.0000 0.47350  0.08910  0.96390  Biso   1.000  C
  C39      1.0000 0.96390  0.47350  0.47350  Biso   1.000  C
  C40      1.0000 0.08910  0.47350  0.47350  Biso   1.000  C
  C41      1.0000 0.47350  0.08910  0.47350  Biso   1.000  C
  C42      1.0000 0.47350  0.96390  0.47350  Biso   1.000  C
  C43      1.0000 0.96390  0.47350  0.08910  Biso   1.000  C
  C44      1.0000 0.08910  0.47350  0.96390  Biso   1.000  C
  C45      1.0000 0.52650  0.52650  0.03610  Biso   1.000  C
  C46      1.0000 0.52650  0.52650  0.91090  Biso   1.000  C
  C47      1.0000 0.91090  0.03610  0.52650  Biso   1.000  C
  C48      1.0000 0.03610  0.91090  0.52650  Biso   1.000  C
  C49      1.0000 0.03610  0.52650  0.91090  Biso   1.000  C
  C50      1.0000 0.91090  0.52650  0.03610  Biso   1.000  C
  C51      1.0000 0.52650  0.03610  0.52650  Biso   1.000  C
  C52      1.0000 0.52650  0.91090  0.52650  Biso   1.000  C
  C53      1.0000 0.91090  0.52650  0.52650  Biso   1.000  C
  C54      1.0000 0.03610  0.52650  0.52650  Biso   1.000  C
  C55      1.0000 0.52650  0.03610  0.91090  Biso   1.000  C
  C56      1.0000 0.52650  0.91090  0.03610  Biso   1.000  C
  C57      1.0000 0.38850  0.38850  0.11150  Biso   1.000  C
  C58      1.0000 0.44660  0.44660  0.05340  Biso   1.000  C
  C59      1.0000 0.11150  0.11150  0.38850  Biso   1.000  C
  C60      1.0000 0.05340  0.05340  0.44660  Biso   1.000  C
  C61      1.0000 0.38850  0.11150  0.11150  Biso   1.000  C
  C62      1.0000 0.44660  0.05340  0.05340  Biso   1.000  C
  C63      1.0000 0.11150  0.38850  0.38850  Biso   1.000  C
  C64      1.0000 0.05340  0.44660  0.44660  Biso   1.000  C
  C65      1.0000 0.38850  0.11150  0.38850  Biso   1.000  C
  C66      1.0000 0.44660  0.05340  0.44660  Biso   1.000  C
  C67      1.0000 0.11150  0.38850  0.11150  Biso   1.000  C
  C68      1.0000 0.05340  0.44660  0.05340  Biso   1.000  C
  C69      1.0000 0.61150  0.61150  0.88850  Biso   1.000  C
  C70      1.0000 0.55340  0.55340  0.94660  Biso   1.000  C
  C71      1.0000 0.88850  0.88850  0.61150  Biso   1.000  C
  C72      1.0000 0.94660  0.94660  0.55340  Biso   1.000  C
  C73      1.0000 0.88850  0.61150  0.88850  Biso   1.000  C
  C74      1.0000 0.94660  0.55340  0.94660  Biso   1.000  C
  C75      1.0000 0.61150  0.88850  0.61150  Biso   1.000  C
  C76      1.0000 0.55340  0.94660  0.55340  Biso   1.000  C
  C77      1.0000 0.88850  0.61150  0.61150  Biso   1.000  C
  C78      1.0000 0.94660  0.55340  0.55340  Biso   1.000  C
  C79      1.0000 0.61150  0.88850  0.88850  Biso   1.000  C
  C80      1.0000 0.55340  0.94660  0.94660  Biso   1.000  C
  C81      1.0000 0.25000  0.25000  0.25000  Biso   1.000  C
  C82      1.0000 0.75000  0.75000  0.75000  Biso   1.000  C
  C83      1.0000 0.36609  0.36609  0.07351  Biso   1.000  C
  C84      1.0000 0.36609  0.36609  0.19431  Biso   1.000  C
  C85      1.0000 0.07351  0.19431  0.36609  Biso   1.000  C
  C86      1.0000 0.19431  0.07351  0.36609  Biso   1.000  C
  C87      1.0000 0.36609  0.07351  0.19431  Biso   1.000  C
  C88      1.0000 0.36609  0.19431  0.07351  Biso   1.000  C
  C89      1.0000 0.07351  0.36609  0.36609  Biso   1.000  C
  C90      1.0000 0.19431  0.36609  0.36609  Biso   1.000  C
  C91      1.0000 0.36609  0.19431  0.36609  Biso   1.000  C
  C92      1.0000 0.36609  0.07351  0.36609  Biso   1.000  C
  C93      1.0000 0.07351  0.36609  0.19431  Biso   1.000  C
  C94      1.0000 0.19431  0.36609  0.07351  Biso   1.000  C
  C95      1.0000 0.63391  0.63391  0.92649  Biso   1.000  C
  C96      1.0000 0.63391  0.63391  0.80569  Biso   1.000  C
  C97      1.0000 0.80569  0.92649  0.63391  Biso   1.000  C
  C98      1.0000 0.92649  0.80569  0.63391  Biso   1.000  C
  C99      1.0000 0.92649  0.63391  0.80569  Biso   1.000  C
  C100     1.0000 0.80569  0.63391  0.92649  Biso   1.000  C
  C101     1.0000 0.63391  0.92649  0.63391  Biso   1.000  C
  C102     1.0000 0.63391  0.80569  0.63391  Biso   1.000  C
  C103     1.0000 0.80569  0.63391  0.63391  Biso   1.000  C
  C104     1.0000 0.92649  0.63391  0.63391  Biso   1.000  C
  C105     1.0000 0.63391  0.92649  0.80569  Biso   1.000  C
  C106     1.0000 0.63391  0.80569  0.92649  Biso   1.000  C
  O1       1.0000 0.92926  0.92820  0.06722  Biso   1.000  O
  O2       1.0000 0.92926  0.10623  0.06722  Biso   1.000  O
  O3       1.0000 0.75123  0.10623  0.06722  Biso   1.000  O
  O4       1.0000 0.92926  0.10623  0.88919  Biso   1.000  O
  O5       1.0000 0.34723  0.51488  0.47588  Biso   1.000  O
  O6       1.0000 0.34723  0.69291  0.47588  Biso   1.000  O
  O7       1.0000 0.52526  0.51488  0.47588  Biso   1.000  O
  O8       1.0000 0.34723  0.51488  0.65390  Biso   1.000  O
  O9       1.0000 0.78227  0.74827  0.23068  Biso   1.000  O
  O10      1.0000 0.09271  0.26968  0.92024  Biso   1.000  O
  O11      1.0000 0.57130  0.95924  0.23068  Biso   1.000  O
  O12      1.0000 0.09271  0.26968  0.70926  Biso   1.000  O
  O13      1.0000 0.57130  0.26968  0.92024  Biso   1.000  O
  O14      1.0000 0.09271  0.95924  0.23068  Biso   1.000  O
  O15      1.0000 0.78227  0.26968  0.70926  Biso   1.000  O
  O16      1.0000 0.09271  0.74826  0.23068  Biso   1.000  O
  O17      1.0000 0.09271  0.95924  0.70926  Biso   1.000  O
  O18      1.0000 0.78227  0.26968  0.23068  Biso   1.000  O
  O19      1.0000 0.09271  0.74827  0.92024  Biso   1.000  O
  O20      1.0000 0.57130  0.26968  0.23068  Biso   1.000  O
  O21      1.0000 0.49421  0.35142  0.31242  Biso   1.000  O
  O22      1.0000 0.18377  0.87284  0.62286  Biso   1.000  O
  O23      1.0000 0.70519  0.35142  0.31242  Biso   1.000  O
  O24      1.0000 0.18377  0.66186  0.83384  Biso   1.000  O
  O25      1.0000 0.70519  0.35142  0.62286  Biso   1.000  O
  O26      1.0000 0.18377  0.87284  0.31242  Biso   1.000  O
  O27      1.0000 0.49421  0.35142  0.83384  Biso   1.000  O
  O28      1.0000 0.18377  0.66186  0.31242  Biso   1.000  O
  O29      1.0000 0.18377  0.35142  0.83384  Biso   1.000  O
  O30      1.0000 0.49421  0.87284  0.31242  Biso   1.000  O
  O31      1.0000 0.18377  0.35142  0.62286  Biso   1.000  O
  O32      1.0000 0.70519  0.66186  0.31242  Biso   1.000  O
  O33      1.0000 0.72963  0.77117  0.24555  Biso   1.000  O
  O34      1.0000 0.10758  0.28455  0.86759  Biso   1.000  O
  O35      1.0000 0.59420  0.90660  0.24555  Biso   1.000  O
  O36      1.0000 0.10758  0.28455  0.73216  Biso   1.000  O
  O37      1.0000 0.59420  0.28455  0.86759  Biso   1.000  O
  O38      1.0000 0.10758  0.90660  0.24555  Biso   1.000  O
  O39      1.0000 0.72963  0.28455  0.73216  Biso   1.000  O
  O40      1.0000 0.10758  0.77117  0.24555  Biso   1.000  O
  O41      1.0000 0.10758  0.90660  0.73216  Biso   1.000  O
  O42      1.0000 0.72963  0.28455  0.24555  Biso   1.000  O
  O43      1.0000 0.10758  0.77117  0.86759  Biso   1.000  O
  O44      1.0000 0.59420  0.28455  0.24555  Biso   1.000  O
  O45      1.0000 0.54686  0.33656  0.29755  Biso   1.000  O
  O46      1.0000 0.16890  0.84994  0.67550  Biso   1.000  O
  O47      1.0000 0.68229  0.33656  0.29755  Biso   1.000  O
  O48      1.0000 0.16890  0.71451  0.81093  Biso   1.000  O
  O49      1.0000 0.68229  0.33656  0.67550  Biso   1.000  O
  O50      1.0000 0.16890  0.84994  0.29755  Biso   1.000  O
  O51      1.0000 0.54686  0.33656  0.81093  Biso   1.000  O
  O52      1.0000 0.16890  0.71451  0.29755  Biso   1.000  O
  O53      1.0000 0.16890  0.33656  0.81093  Biso   1.000  O
  O54      1.0000 0.54686  0.84994  0.29755  Biso   1.000  O
  O55      1.0000 0.16890  0.33656  0.67550  Biso   1.000  O
  O56      1.0000 0.68229  0.71451  0.29755  Biso   1.000  O
  O57      1.0000 0.74872  0.92569  0.15874  Biso   1.000  O
  O58      1.0000 0.68794  0.86491  0.21952  Biso   1.000  O
  O59      1.0000 0.02078  0.19775  0.88668  Biso   1.000  O
  O60      1.0000 0.08156  0.25853  0.82590  Biso   1.000  O
  O61      1.0000 0.74872  0.19775  0.88668  Biso   1.000  O
  O62      1.0000 0.68794  0.25853  0.82590  Biso   1.000  O
  O63      1.0000 0.02078  0.92569  0.15874  Biso   1.000  O
  O64      1.0000 0.08156  0.86491  0.21952  Biso   1.000  O
  O65      1.0000 0.02078  0.92569  0.88668  Biso   1.000  O
  O66      1.0000 0.08156  0.86491  0.82590  Biso   1.000  O
  O67      1.0000 0.74872  0.19775  0.15874  Biso   1.000  O
  O68      1.0000 0.68794  0.25853  0.21952  Biso   1.000  O
  O69      1.0000 0.52777  0.42336  0.38435  Biso   1.000  O
  O70      1.0000 0.58855  0.36258  0.32357  Biso   1.000  O
  O71      1.0000 0.25571  0.69542  0.65641  Biso   1.000  O
  O72      1.0000 0.19493  0.75620  0.71719  Biso   1.000  O
  O73      1.0000 0.52777  0.42336  0.65641  Biso   1.000  O
  O74      1.0000 0.58855  0.36258  0.71719  Biso   1.000  O
  O75      1.0000 0.25571  0.69542  0.38435  Biso   1.000  O
  O76      1.0000 0.19493  0.75620  0.32357  Biso   1.000  O
  O77      1.0000 0.25571  0.42336  0.65641  Biso   1.000  O
  O78      1.0000 0.19493  0.36258  0.71719  Biso   1.000  O
  O79      1.0000 0.52777  0.69542  0.38435  Biso   1.000  O
  O80      1.0000 0.58855  0.75620  0.32357  Biso   1.000  O
  O81      1.0000 0.88475  0.06172  0.02271  Biso   1.000  O
  O82      1.0000 0.39174  0.55939  0.52038  Biso   1.000  O
  O83      1.0000 0.83090  0.88168  0.13965  Biso   1.000  O
  O84      1.0000 0.00169  0.17866  0.96886  Biso   1.000  O
  O85      1.0000 0.70471  0.00787  0.13965  Biso   1.000  O
  O86      1.0000 0.00169  0.17866  0.84268  Biso   1.000  O
  O87      1.0000 0.70471  0.17866  0.96886  Biso   1.000  O
  O88      1.0000 0.00169  0.00787  0.13965  Biso   1.000  O
  O89      1.0000 0.83090  0.17866  0.84268  Biso   1.000  O
  O90      1.0000 0.00169  0.88168  0.13965  Biso   1.000  O
  O91      1.0000 0.00169  0.00787  0.84268  Biso   1.000  O
  O92      1.0000 0.83090  0.17866  0.13965  Biso   1.000  O
  O93      1.0000 0.00169  0.88168  0.96886  Biso   1.000  O
  O94      1.0000 0.70471  0.17866  0.13965  Biso   1.000  O
  O95      1.0000 0.44559  0.44245  0.40344  Biso   1.000  O
  O96      1.0000 0.27480  0.73942  0.57423  Biso   1.000  O
  O97      1.0000 0.57177  0.44245  0.40344  Biso   1.000  O
  O98      1.0000 0.27480  0.61324  0.70042  Biso   1.000  O
  O99      1.0000 0.57177  0.44245  0.57423  Biso   1.000  O
  O100     1.0000 0.27480  0.73942  0.40344  Biso   1.000  O
  O101     1.0000 0.44559  0.44245  0.70042  Biso   1.000  O
  O102     1.0000 0.27480  0.61324  0.40344  Biso   1.000  O
  O103     1.0000 0.27480  0.44245  0.70042  Biso   1.000  O
  O104     1.0000 0.44559  0.73942  0.40344  Biso   1.000  O
  O105     1.0000 0.27480  0.44245  0.57423  Biso   1.000  O
