data_image0
_cell_length_a       18.2359
_cell_length_b       18.2359
_cell_length_c       18.2359
_cell_angle_alpha    60
_cell_angle_beta     60
_cell_angle_gamma    60

_symmetry_space_group_name_H-M    "P 1"
_symmetry_int_tables_number       1

loop_
  _symmetry_equiv_pos_as_xyz
  'x, y, z'

loop_
  _atom_site_label
  _atom_site_occupancy
  _atom_site_fract_x
  _atom_site_fract_y
  _atom_site_fract_z
  _atom_site_thermal_displace_type
  _atom_site_B_iso_or_equiv
  _atom_site_type_symbol
  C1       1.0000 0.29356  0.29357  0.11930  Biso   1.000  C
  C2       1.0000 0.29356  0.29357  0.29357  Biso   1.000  C
  C3       1.0000 0.11929  0.29357  0.29357  Biso   1.000  C
  C4       1.0000 0.29356  0.11930  0.29357  Biso   1.000  C
  C5       1.0000 0.70644  0.70643  0.88070  Biso   1.000  C
  C6       1.0000 0.70644  0.70643  0.70643  Biso   1.000  C
  C7       1.0000 0.70644  0.88070  0.70643  Biso   1.000  C
  C8       1.0000 0.88071  0.70643  0.70643  Biso   1.000  C
  C9       1.0000 0.45600  0.45600  0.93640  Biso   1.000  C
  C10      1.0000 0.45600  0.45600  0.15160  Biso   1.000  C
  C11      1.0000 0.93640  0.15160  0.45600  Biso   1.000  C
  C12      1.0000 0.15160  0.93640  0.45600  Biso   1.000  C
  C13      1.0000 0.45600  0.93640  0.15160  Biso   1.000  C
  C14      1.0000 0.45600  0.15160  0.93640  Biso   1.000  C
  C15      1.0000 0.93640  0.45600  0.45600  Biso   1.000  C
  C16      1.0000 0.15160  0.45600  0.45600  Biso   1.000  C
  C17      1.0000 0.45600  0.15160  0.45600  Biso   1.000  C
  C18      1.0000 0.45600  0.93640  0.45600  Biso   1.000  C
  C19      1.0000 0.93640  0.45600  0.15160  Biso   1.000  C
  C20      1.0000 0.15160  0.45600  0.93640  Biso   1.000  C
  C21      1.0000 0.54400  0.54400  0.06360  Biso   1.000  C
  C22      1.0000 0.54400  0.54400  0.84840  Biso   1.000  C
  C23      1.0000 0.84840  0.06360  0.54400  Biso   1.000  C
  C24      1.0000 0.06360  0.84840  0.54400  Biso   1.000  C
  C25      1.0000 0.06360  0.54400  0.84840  Biso   1.000  C
  C26      1.0000 0.84840  0.54400  0.06360  Biso   1.000  C
  C27      1.0000 0.54400  0.06360  0.54400  Biso   1.000  C
  C28      1.0000 0.54400  0.84840  0.54400  Biso   1.000  C
  C29      1.0000 0.84840  0.54400  0.54400  Biso   1.000  C
  C30      1.0000 0.06360  0.54400  0.54400  Biso   1.000  C
  C31      1.0000 0.54400  0.06360  0.84840  Biso   1.000  C
  C32      1.0000 0.54400  0.84840  0.06360  Biso   1.000  C
  C33      1.0000 0.47360  0.47360  0.96320  Biso   1.000  C
  C34      1.0000 0.47360  0.47360  0.08960  Biso   1.000  C
  C35      1.0000 0.96320  0.08960  0.47360  Biso   1.000  C
  C36      1.0000 0.08960  0.96320  0.47360  Biso   1.000  C
  C37      1.0000 0.47360  0.96320  0.08960  Biso   1.000  C
  C38      1.0000 0.47360  0.08960  0.96320  Biso   1.000  C
  C39      1.0000 0.96320  0.47360  0.47360  Biso   1.000  C
  C40      1.0000 0.08960  0.47360  0.47360  Biso   1.000  C
  C41      1.0000 0.47360  0.08960  0.47360  Biso   1.000  C
  C42      1.0000 0.47360  0.96320  0.47360  Biso   1.000  C
  C43      1.0000 0.96320  0.47360  0.08960  Biso   1.000  C
  C44      1.0000 0.08960  0.47360  0.96320  Biso   1.000  C
  C45      1.0000 0.52640  0.52640  0.03680  Biso   1.000  C
  C46      1.0000 0.52640  0.52640  0.91040  Biso   1.000  C
  C47      1.0000 0.91040  0.03680  0.52640  Biso   1.000  C
  C48      1.0000 0.03680  0.91040  0.52640  Biso   1.000  C
  C49      1.0000 0.03680  0.52640  0.91040  Biso   1.000  C
  C50      1.0000 0.91040  0.52640  0.03680  Biso   1.000  C
  C51      1.0000 0.52640  0.03680  0.52640  Biso   1.000  C
  C52      1.0000 0.52640  0.91040  0.52640  Biso   1.000  C
  C53      1.0000 0.91040  0.52640  0.52640  Biso   1.000  C
  C54      1.0000 0.03680  0.52640  0.52640  Biso   1.000  C
  C55      1.0000 0.52640  0.03680  0.91040  Biso   1.000  C
  C56      1.0000 0.52640  0.91040  0.03680  Biso   1.000  C
  C57      1.0000 0.38860  0.38860  0.11140  Biso   1.000  C
  C58      1.0000 0.44630  0.44630  0.05370  Biso   1.000  C
  C59      1.0000 0.11140  0.11140  0.38860  Biso   1.000  C
  C60      1.0000 0.05370  0.05370  0.44630  Biso   1.000  C
  C61      1.0000 0.38860  0.11140  0.11140  Biso   1.000  C
  C62      1.0000 0.44630  0.05370  0.05370  Biso   1.000  C
  C63      1.0000 0.11140  0.38860  0.38860  Biso   1.000  C
  C64      1.0000 0.05370  0.44630  0.44630  Biso   1.000  C
  C65      1.0000 0.38860  0.11140  0.38860  Biso   1.000  C
  C66      1.0000 0.44630  0.05370  0.44630  Biso   1.000  C
  C67      1.0000 0.11140  0.38860  0.11140  Biso   1.000  C
  C68      1.0000 0.05370  0.44630  0.05370  Biso   1.000  C
  C69      1.0000 0.61140  0.61140  0.88860  Biso   1.000  C
  C70      1.0000 0.55370  0.55370  0.94630  Biso   1.000  C
  C71      1.0000 0.88860  0.88860  0.61140  Biso   1.000  C
  C72      1.0000 0.94630  0.94630  0.55370  Biso   1.000  C
  C73      1.0000 0.88860  0.61140  0.88860  Biso   1.000  C
  C74      1.0000 0.94630  0.55370  0.94630  Biso   1.000  C
  C75      1.0000 0.61140  0.88860  0.61140  Biso   1.000  C
  C76      1.0000 0.55370  0.94630  0.55370  Biso   1.000  C
  C77      1.0000 0.88860  0.61140  0.61140  Biso   1.000  C
  C78      1.0000 0.94630  0.55370  0.55370  Biso   1.000  C
  C79      1.0000 0.61140  0.88860  0.88860  Biso   1.000  C
  C80      1.0000 0.55370  0.94630  0.94630  Biso   1.000  C
  C81      1.0000 0.25000  0.25000  0.25000  Biso   1.000  C
  C82      1.0000 0.75000  0.75000  0.75000  Biso   1.000  C
  C83      1.0000 0.36605  0.36605  0.07323  Biso   1.000  C
  C84      1.0000 0.36605  0.36605  0.19467  Biso   1.000  C
  C85      1.0000 0.07323  0.19467  0.36605  Biso   1.000  C
  C86      1.0000 0.19467  0.07323  0.36605  Biso   1.000  C
  C87      1.0000 0.36605  0.07323  0.19467  Biso   1.000  C
  C88      1.0000 0.36605  0.19467  0.07323  Biso   1.000  C
  C89      1.0000 0.07323  0.36605  0.36605  Biso   1.000  C
  C90      1.0000 0.19467  0.36605  0.36605  Biso   1.000  C
  C91      1.0000 0.36605  0.19467  0.36605  Biso   1.000  C
  C92      1.0000 0.36605  0.07323  0.36605  Biso   1.000  C
  C93      1.0000 0.07323  0.36605  0.19467  Biso   1.000  C
  C94      1.0000 0.19467  0.36605  0.07323  Biso   1.000  C
  C95      1.0000 0.63395  0.63395  0.92677  Biso   1.000  C
  C96      1.0000 0.63395  0.63395  0.80533  Biso   1.000  C
  C97      1.0000 0.80533  0.92677  0.63395  Biso   1.000  C
  C98      1.0000 0.92677  0.80533  0.63395  Biso   1.000  C
  C99      1.0000 0.92677  0.63395  0.80533  Biso   1.000  C
  C100     1.0000 0.80533  0.63395  0.92677  Biso   1.000  C
  C101     1.0000 0.63395  0.92677  0.63395  Biso   1.000  C
  C102     1.0000 0.63395  0.80533  0.63395  Biso   1.000  C
  C103     1.0000 0.80533  0.63395  0.63395  Biso   1.000  C
  C104     1.0000 0.92677  0.63395  0.63395  Biso   1.000  C
  C105     1.0000 0.63395  0.92677  0.80533  Biso   1.000  C
  C106     1.0000 0.63395  0.80533  0.92677  Biso   1.000  C
  O1       1.0000 0.92847  0.92742  0.06716  Biso   1.000  O
  O2       1.0000 0.92847  0.10181  0.06716  Biso   1.000  O
  O3       1.0000 0.75408  0.10181  0.06716  Biso   1.000  O
  O4       1.0000 0.92847  0.10181  0.89277  Biso   1.000  O
  O5       1.0000 0.34736  0.51259  0.47794  Biso   1.000  O
  O6       1.0000 0.34736  0.68699  0.47794  Biso   1.000  O
  O7       1.0000 0.52175  0.51259  0.47794  Biso   1.000  O
  O8       1.0000 0.34736  0.51259  0.65234  Biso   1.000  O
  O9       1.0000 0.79039  0.74123  0.22930  Biso   1.000  O
  O10      1.0000 0.09061  0.26394  0.92908  Biso   1.000  O
  O11      1.0000 0.56790  0.96373  0.22930  Biso   1.000  O
  O12      1.0000 0.09061  0.26394  0.70659  Biso   1.000  O
  O13      1.0000 0.56790  0.26394  0.92908  Biso   1.000  O
  O14      1.0000 0.09061  0.96373  0.22930  Biso   1.000  O
  O15      1.0000 0.79039  0.26394  0.70659  Biso   1.000  O
  O16      1.0000 0.09061  0.74123  0.22930  Biso   1.000  O
  O17      1.0000 0.09060  0.96373  0.70659  Biso   1.000  O
  O18      1.0000 0.79039  0.26394  0.22930  Biso   1.000  O
  O19      1.0000 0.09060  0.74123  0.92908  Biso   1.000  O
  O20      1.0000 0.56790  0.26394  0.22930  Biso   1.000  O
  O21      1.0000 0.48543  0.35046  0.31581  Biso   1.000  O
  O22      1.0000 0.18522  0.87317  0.61602  Biso   1.000  O
  O23      1.0000 0.70793  0.35046  0.31581  Biso   1.000  O
  O24      1.0000 0.18522  0.65067  0.83852  Biso   1.000  O
  O25      1.0000 0.70793  0.35046  0.61602  Biso   1.000  O
  O26      1.0000 0.18522  0.87317  0.31581  Biso   1.000  O
  O27      1.0000 0.48543  0.35046  0.83852  Biso   1.000  O
  O28      1.0000 0.18522  0.65067  0.31581  Biso   1.000  O
  O29      1.0000 0.18522  0.35046  0.83852  Biso   1.000  O
  O30      1.0000 0.48543  0.87317  0.31581  Biso   1.000  O
  O31      1.0000 0.18522  0.35046  0.61602  Biso   1.000  O
  O32      1.0000 0.70793  0.65067  0.31581  Biso   1.000  O
  O33      1.0000 0.72693  0.76789  0.24770  Biso   1.000  O
  O34      1.0000 0.10901  0.28235  0.86562  Biso   1.000  O
  O35      1.0000 0.59455  0.90027  0.24770  Biso   1.000  O
  O36      1.0000 0.10901  0.28235  0.73324  Biso   1.000  O
  O37      1.0000 0.59455  0.28235  0.86562  Biso   1.000  O
  O38      1.0000 0.10901  0.90027  0.24770  Biso   1.000  O
  O39      1.0000 0.72693  0.28235  0.73324  Biso   1.000  O
  O40      1.0000 0.10901  0.76789  0.24770  Biso   1.000  O
  O41      1.0000 0.10901  0.90027  0.73324  Biso   1.000  O
  O42      1.0000 0.72693  0.28235  0.24770  Biso   1.000  O
  O43      1.0000 0.10901  0.76789  0.86562  Biso   1.000  O
  O44      1.0000 0.59455  0.28235  0.24770  Biso   1.000  O
  O45      1.0000 0.54890  0.33205  0.29740  Biso   1.000  O
  O46      1.0000 0.16682  0.84651  0.67949  Biso   1.000  O
  O47      1.0000 0.68128  0.33205  0.29740  Biso   1.000  O
  O48      1.0000 0.16682  0.71413  0.81186  Biso   1.000  O
  O49      1.0000 0.68128  0.33205  0.67949  Biso   1.000  O
  O50      1.0000 0.16682  0.84651  0.29740  Biso   1.000  O
  O51      1.0000 0.54890  0.33205  0.81186  Biso   1.000  O
  O52      1.0000 0.16682  0.71413  0.29740  Biso   1.000  O
  O53      1.0000 0.16682  0.33205  0.81186  Biso   1.000  O
  O54      1.0000 0.54890  0.84651  0.29740  Biso   1.000  O
  O55      1.0000 0.16682  0.33205  0.67949  Biso   1.000  O
  O56      1.0000 0.68128  0.71413  0.29740  Biso   1.000  O
  O57      1.0000 0.74585  0.91919  0.16259  Biso   1.000  O
  O58      1.0000 0.68781  0.86115  0.22063  Biso   1.000  O
  O59      1.0000 0.02390  0.19723  0.88454  Biso   1.000  O
  O60      1.0000 0.08194  0.25528  0.82650  Biso   1.000  O
  O61      1.0000 0.74585  0.19723  0.88454  Biso   1.000  O
  O62      1.0000 0.68781  0.25528  0.82650  Biso   1.000  O
  O63      1.0000 0.02390  0.91919  0.16259  Biso   1.000  O
  O64      1.0000 0.08194  0.86115  0.22063  Biso   1.000  O
  O65      1.0000 0.02390  0.91919  0.88454  Biso   1.000  O
  O66      1.0000 0.08194  0.86115  0.82650  Biso   1.000  O
  O67      1.0000 0.74585  0.19723  0.16259  Biso   1.000  O
  O68      1.0000 0.68781  0.25528  0.22063  Biso   1.000  O
  O69      1.0000 0.52997  0.41717  0.38252  Biso   1.000  O
  O70      1.0000 0.58802  0.35912  0.32447  Biso   1.000  O
  O71      1.0000 0.25193  0.69521  0.66056  Biso   1.000  O
  O72      1.0000 0.19389  0.75325  0.71860  Biso   1.000  O
  O73      1.0000 0.52997  0.41717  0.66056  Biso   1.000  O
  O74      1.0000 0.58802  0.35912  0.71860  Biso   1.000  O
  O75      1.0000 0.25193  0.69521  0.38252  Biso   1.000  O
  O76      1.0000 0.19389  0.75325  0.32447  Biso   1.000  O
  O77      1.0000 0.25193  0.41717  0.66056  Biso   1.000  O
  O78      1.0000 0.19389  0.35912  0.71860  Biso   1.000  O
  O79      1.0000 0.52997  0.69521  0.38252  Biso   1.000  O
  O80      1.0000 0.58802  0.75325  0.32447  Biso   1.000  O
  O81      1.0000 0.88487  0.05821  0.02357  Biso   1.000  O
  O82      1.0000 0.39095  0.55619  0.52154  Biso   1.000  O
  O83      1.0000 0.82975  0.87983  0.14032  Biso   1.000  O
  O84      1.0000 0.00163  0.17496  0.96844  Biso   1.000  O
  O85      1.0000 0.70649  0.00309  0.14032  Biso   1.000  O
  O86      1.0000 0.00163  0.17496  0.84519  Biso   1.000  O
  O87      1.0000 0.70649  0.17496  0.96844  Biso   1.000  O
  O88      1.0000 0.00163  0.00309  0.14032  Biso   1.000  O
  O89      1.0000 0.82975  0.17496  0.84519  Biso   1.000  O
  O90      1.0000 0.00163  0.87983  0.14032  Biso   1.000  O
  O91      1.0000 0.00163  0.00309  0.84519  Biso   1.000  O
  O92      1.0000 0.82975  0.17496  0.14032  Biso   1.000  O
  O93      1.0000 0.00163  0.87983  0.96844  Biso   1.000  O
  O94      1.0000 0.70649  0.17496  0.14032  Biso   1.000  O
  O95      1.0000 0.44608  0.43944  0.40479  Biso   1.000  O
  O96      1.0000 0.27420  0.73457  0.57666  Biso   1.000  O
  O97      1.0000 0.56933  0.43944  0.40479  Biso   1.000  O
  O98      1.0000 0.27420  0.61131  0.69992  Biso   1.000  O
  O99      1.0000 0.56933  0.43944  0.57666  Biso   1.000  O
  O100     1.0000 0.27420  0.73457  0.40479  Biso   1.000  O
  O101     1.0000 0.44608  0.43944  0.69992  Biso   1.000  O
  O102     1.0000 0.27420  0.61131  0.40479  Biso   1.000  O
  O103     1.0000 0.27420  0.43944  0.69992  Biso   1.000  O
  O104     1.0000 0.44608  0.73457  0.40479  Biso   1.000  O
  O105     1.0000 0.27420  0.43944  0.57666  Biso   1.000  O
