data_image0
_cell_length_a       18.2115
_cell_length_b       18.2115
_cell_length_c       18.2115
_cell_angle_alpha    60
_cell_angle_beta     60
_cell_angle_gamma    60

_symmetry_space_group_name_H-M    "P 1"
_symmetry_int_tables_number       1

loop_
  _symmetry_equiv_pos_as_xyz
  'x, y, z'

loop_
  _atom_site_label
  _atom_site_occupancy
  _atom_site_fract_x
  _atom_site_fract_y
  _atom_site_fract_z
  _atom_site_thermal_displace_type
  _atom_site_B_iso_or_equiv
  _atom_site_type_symbol
  C1       1.0000 0.29361  0.29361  0.11917  Biso   1.000  C
  C2       1.0000 0.29361  0.29361  0.29361  Biso   1.000  C
  C3       1.0000 0.11917  0.29361  0.29361  Biso   1.000  C
  C4       1.0000 0.29361  0.11917  0.29361  Biso   1.000  C
  C5       1.0000 0.70639  0.70639  0.88083  Biso   1.000  C
  C6       1.0000 0.70639  0.70639  0.70639  Biso   1.000  C
  C7       1.0000 0.70639  0.88083  0.70639  Biso   1.000  C
  C8       1.0000 0.88083  0.70639  0.70639  Biso   1.000  C
  C9       1.0000 0.45530  0.45530  0.93770  Biso   1.000  C
  C10      1.0000 0.45530  0.45530  0.15170  Biso   1.000  C
  C11      1.0000 0.93770  0.15170  0.45530  Biso   1.000  C
  C12      1.0000 0.15170  0.93770  0.45530  Biso   1.000  C
  C13      1.0000 0.45530  0.93770  0.15170  Biso   1.000  C
  C14      1.0000 0.45530  0.15170  0.93770  Biso   1.000  C
  C15      1.0000 0.93770  0.45530  0.45530  Biso   1.000  C
  C16      1.0000 0.15170  0.45530  0.45530  Biso   1.000  C
  C17      1.0000 0.45530  0.15170  0.45530  Biso   1.000  C
  C18      1.0000 0.45530  0.93770  0.45530  Biso   1.000  C
  C19      1.0000 0.93770  0.45530  0.15170  Biso   1.000  C
  C20      1.0000 0.15170  0.45530  0.93770  Biso   1.000  C
  C21      1.0000 0.54470  0.54470  0.06230  Biso   1.000  C
  C22      1.0000 0.54470  0.54470  0.84830  Biso   1.000  C
  C23      1.0000 0.84830  0.06230  0.54470  Biso   1.000  C
  C24      1.0000 0.06230  0.84830  0.54470  Biso   1.000  C
  C25      1.0000 0.06230  0.54470  0.84830  Biso   1.000  C
  C26      1.0000 0.84830  0.54470  0.06230  Biso   1.000  C
  C27      1.0000 0.54470  0.06230  0.54470  Biso   1.000  C
  C28      1.0000 0.54470  0.84830  0.54470  Biso   1.000  C
  C29      1.0000 0.84830  0.54470  0.54470  Biso   1.000  C
  C30      1.0000 0.06230  0.54470  0.54470  Biso   1.000  C
  C31      1.0000 0.54470  0.06230  0.84830  Biso   1.000  C
  C32      1.0000 0.54470  0.84830  0.06230  Biso   1.000  C
  C33      1.0000 0.47300  0.47300  0.96450  Biso   1.000  C
  C34      1.0000 0.47300  0.47300  0.08950  Biso   1.000  C
  C35      1.0000 0.96450  0.08950  0.47300  Biso   1.000  C
  C36      1.0000 0.08950  0.96450  0.47300  Biso   1.000  C
  C37      1.0000 0.47300  0.96450  0.08950  Biso   1.000  C
  C38      1.0000 0.47300  0.08950  0.96450  Biso   1.000  C
  C39      1.0000 0.96450  0.47300  0.47300  Biso   1.000  C
  C40      1.0000 0.08950  0.47300  0.47300  Biso   1.000  C
  C41      1.0000 0.47300  0.08950  0.47300  Biso   1.000  C
  C42      1.0000 0.47300  0.96450  0.47300  Biso   1.000  C
  C43      1.0000 0.96450  0.47300  0.08950  Biso   1.000  C
  C44      1.0000 0.08950  0.47300  0.96450  Biso   1.000  C
  C45      1.0000 0.52700  0.52700  0.03550  Biso   1.000  C
  C46      1.0000 0.52700  0.52700  0.91050  Biso   1.000  C
  C47      1.0000 0.91050  0.03550  0.52700  Biso   1.000  C
  C48      1.0000 0.03550  0.91050  0.52700  Biso   1.000  C
  C49      1.0000 0.03550  0.52700  0.91050  Biso   1.000  C
  C50      1.0000 0.91050  0.52700  0.03550  Biso   1.000  C
  C51      1.0000 0.52700  0.03550  0.52700  Biso   1.000  C
  C52      1.0000 0.52700  0.91050  0.52700  Biso   1.000  C
  C53      1.0000 0.91050  0.52700  0.52700  Biso   1.000  C
  C54      1.0000 0.03550  0.52700  0.52700  Biso   1.000  C
  C55      1.0000 0.52700  0.03550  0.91050  Biso   1.000  C
  C56      1.0000 0.52700  0.91050  0.03550  Biso   1.000  C
  C57      1.0000 0.38860  0.38860  0.11140  Biso   1.000  C
  C58      1.0000 0.44600  0.44600  0.05400  Biso   1.000  C
  C59      1.0000 0.11140  0.11140  0.38860  Biso   1.000  C
  C60      1.0000 0.05400  0.05400  0.44600  Biso   1.000  C
  C61      1.0000 0.38860  0.11140  0.11140  Biso   1.000  C
  C62      1.0000 0.44600  0.05400  0.05400  Biso   1.000  C
  C63      1.0000 0.11140  0.38860  0.38860  Biso   1.000  C
  C64      1.0000 0.05400  0.44600  0.44600  Biso   1.000  C
  C65      1.0000 0.38860  0.11140  0.38860  Biso   1.000  C
  C66      1.0000 0.44600  0.05400  0.44600  Biso   1.000  C
  C67      1.0000 0.11140  0.38860  0.11140  Biso   1.000  C
  C68      1.0000 0.05400  0.44600  0.05400  Biso   1.000  C
  C69      1.0000 0.61140  0.61140  0.88860  Biso   1.000  C
  C70      1.0000 0.55400  0.55400  0.94600  Biso   1.000  C
  C71      1.0000 0.88860  0.88860  0.61140  Biso   1.000  C
  C72      1.0000 0.94600  0.94600  0.55400  Biso   1.000  C
  C73      1.0000 0.88860  0.61140  0.88860  Biso   1.000  C
  C74      1.0000 0.94600  0.55400  0.94600  Biso   1.000  C
  C75      1.0000 0.61140  0.88860  0.61140  Biso   1.000  C
  C76      1.0000 0.55400  0.94600  0.55400  Biso   1.000  C
  C77      1.0000 0.88860  0.61140  0.61140  Biso   1.000  C
  C78      1.0000 0.94600  0.55400  0.55400  Biso   1.000  C
  C79      1.0000 0.61140  0.88860  0.88860  Biso   1.000  C
  C80      1.0000 0.55400  0.94600  0.94600  Biso   1.000  C
  C81      1.0000 0.25000  0.25000  0.25000  Biso   1.000  C
  C82      1.0000 0.75000  0.75000  0.75000  Biso   1.000  C
  C83      1.0000 0.36611  0.36611  0.07317  Biso   1.000  C
  C84      1.0000 0.36611  0.36611  0.19461  Biso   1.000  C
  C85      1.0000 0.07317  0.19461  0.36611  Biso   1.000  C
  C86      1.0000 0.19461  0.07317  0.36611  Biso   1.000  C
  C87      1.0000 0.36611  0.07317  0.19461  Biso   1.000  C
  C88      1.0000 0.36611  0.19461  0.07317  Biso   1.000  C
  C89      1.0000 0.07317  0.36611  0.36611  Biso   1.000  C
  C90      1.0000 0.19461  0.36611  0.36611  Biso   1.000  C
  C91      1.0000 0.36611  0.19461  0.36611  Biso   1.000  C
  C92      1.0000 0.36611  0.07317  0.36611  Biso   1.000  C
  C93      1.0000 0.07317  0.36611  0.19461  Biso   1.000  C
  C94      1.0000 0.19461  0.36611  0.07317  Biso   1.000  C
  C95      1.0000 0.63389  0.63389  0.92683  Biso   1.000  C
  C96      1.0000 0.63389  0.63389  0.80539  Biso   1.000  C
  C97      1.0000 0.80539  0.92683  0.63389  Biso   1.000  C
  C98      1.0000 0.92683  0.80539  0.63389  Biso   1.000  C
  C99      1.0000 0.92683  0.63389  0.80539  Biso   1.000  C
  C100     1.0000 0.80539  0.63389  0.92683  Biso   1.000  C
  C101     1.0000 0.63389  0.92683  0.63389  Biso   1.000  C
  C102     1.0000 0.63389  0.80539  0.63389  Biso   1.000  C
  C103     1.0000 0.80539  0.63389  0.63389  Biso   1.000  C
  C104     1.0000 0.92683  0.63389  0.63389  Biso   1.000  C
  C105     1.0000 0.63389  0.92683  0.80539  Biso   1.000  C
  C106     1.0000 0.63389  0.80539  0.92683  Biso   1.000  C
  O1       1.0000 0.10606  0.92866  0.06725  Biso   1.000  O
  O2       1.0000 0.10606  0.75510  0.06725  Biso   1.000  O
  O3       1.0000 0.10606  0.92866  0.89369  Biso   1.000  O
  O4       1.0000 0.93250  0.92866  0.06725  Biso   1.000  O
  O5       1.0000 0.50556  0.52001  0.48505  Biso   1.000  O
  O6       1.0000 0.50556  0.34645  0.48505  Biso   1.000  O
  O7       1.0000 0.50556  0.34645  0.65860  Biso   1.000  O
  O8       1.0000 0.67912  0.34645  0.48505  Biso   1.000  O
  O9       1.0000 0.28522  0.71920  0.24641  Biso   1.000  O
  O10      1.0000 0.28522  0.60624  0.24641  Biso   1.000  O
  O11      1.0000 0.89660  0.10781  0.74484  Biso   1.000  O
  O12      1.0000 0.78365  0.10781  0.85780  Biso   1.000  O
  O13      1.0000 0.89660  0.10781  0.24641  Biso   1.000  O
  O14      1.0000 0.78365  0.10781  0.24641  Biso   1.000  O
  O15      1.0000 0.28522  0.60625  0.85779  Biso   1.000  O
  O16      1.0000 0.28522  0.71920  0.74484  Biso   1.000  O
  O17      1.0000 0.28522  0.10781  0.85779  Biso   1.000  O
  O18      1.0000 0.28522  0.10781  0.74484  Biso   1.000  O
  O19      1.0000 0.78365  0.71920  0.24641  Biso   1.000  O
  O20      1.0000 0.89660  0.60625  0.24641  Biso   1.000  O
  O21      1.0000 0.32640  0.66887  0.30589  Biso   1.000  O
  O22      1.0000 0.32640  0.55591  0.30589  Biso   1.000  O
  O23      1.0000 0.71501  0.16730  0.80746  Biso   1.000  O
  O24      1.0000 0.82797  0.16730  0.69450  Biso   1.000  O
  O25      1.0000 0.71501  0.66887  0.30589  Biso   1.000  O
  O26      1.0000 0.82797  0.55591  0.30589  Biso   1.000  O
  O27      1.0000 0.32640  0.16730  0.69450  Biso   1.000  O
  O28      1.0000 0.32640  0.16730  0.80746  Biso   1.000  O
  O29      1.0000 0.32640  0.66887  0.69450  Biso   1.000  O
  O30      1.0000 0.32640  0.55591  0.80746  Biso   1.000  O
  O31      1.0000 0.82797  0.16730  0.30589  Biso   1.000  O
  O32      1.0000 0.71501  0.16730  0.30589  Biso   1.000  O
  O33      1.0000 0.25648  0.69146  0.21767  Biso   1.000  O
  O34      1.0000 0.20109  0.74685  0.16228  Biso   1.000  O
  O35      1.0000 0.86886  0.07908  0.83005  Biso   1.000  O
  O36      1.0000 0.92425  0.02369  0.88544  Biso   1.000  O
  O37      1.0000 0.86886  0.07908  0.21767  Biso   1.000  O
  O38      1.0000 0.92425  0.02369  0.16228  Biso   1.000  O
  O39      1.0000 0.25648  0.69146  0.83005  Biso   1.000  O
  O40      1.0000 0.20109  0.74685  0.88544  Biso   1.000  O
  O41      1.0000 0.25648  0.07908  0.83005  Biso   1.000  O
  O42      1.0000 0.20109  0.02369  0.88544  Biso   1.000  O
  O43      1.0000 0.86886  0.69146  0.21767  Biso   1.000  O
  O44      1.0000 0.92425  0.74685  0.16228  Biso   1.000  O
  O45      1.0000 0.35514  0.58365  0.33463  Biso   1.000  O
  O46      1.0000 0.41053  0.52826  0.39001  Biso   1.000  O
  O47      1.0000 0.74276  0.19603  0.72225  Biso   1.000  O
  O48      1.0000 0.68737  0.25142  0.66686  Biso   1.000  O
  O49      1.0000 0.74276  0.58365  0.33463  Biso   1.000  O
  O50      1.0000 0.68737  0.52826  0.39001  Biso   1.000  O
  O51      1.0000 0.35514  0.19603  0.72225  Biso   1.000  O
  O52      1.0000 0.41053  0.25142  0.66686  Biso   1.000  O
  O53      1.0000 0.35514  0.58365  0.72225  Biso   1.000  O
  O54      1.0000 0.41053  0.52826  0.66686  Biso   1.000  O
  O55      1.0000 0.74276  0.19603  0.33463  Biso   1.000  O
  O56      1.0000 0.68737  0.25142  0.39001  Biso   1.000  O
  O57      1.0000 0.06267  0.88527  0.02386  Biso   1.000  O
  O58      1.0000 0.54895  0.38984  0.52844  Biso   1.000  O
  O59      1.0000 0.17731  0.82988  0.13850  Biso   1.000  O
  O60      1.0000 0.17731  0.71137  0.13850  Biso   1.000  O
  O61      1.0000 0.00728  0.99991  0.84997  Biso   1.000  O
  O62      1.0000 0.88878  0.99991  0.96847  Biso   1.000  O
  O63      1.0000 0.00728  0.99991  0.13850  Biso   1.000  O
  O64      1.0000 0.88878  0.99991  0.13850  Biso   1.000  O
  O65      1.0000 0.17731  0.71137  0.96847  Biso   1.000  O
  O66      1.0000 0.17731  0.82988  0.84997  Biso   1.000  O
  O67      1.0000 0.17731  0.99991  0.96847  Biso   1.000  O
  O68      1.0000 0.17731  0.99991  0.84997  Biso   1.000  O
  O69      1.0000 0.88878  0.82988  0.13850  Biso   1.000  O
  O70      1.0000 0.00728  0.71137  0.13850  Biso   1.000  O
  O71      1.0000 0.43431  0.56374  0.41379  Biso   1.000  O
  O72      1.0000 0.43431  0.44523  0.41379  Biso   1.000  O
  O73      1.0000 0.60434  0.27520  0.70233  Biso   1.000  O
  O74      1.0000 0.72284  0.27520  0.58382  Biso   1.000  O
  O75      1.0000 0.60434  0.56374  0.41379  Biso   1.000  O
  O76      1.0000 0.72284  0.44523  0.41379  Biso   1.000  O
  O77      1.0000 0.43431  0.27520  0.58382  Biso   1.000  O
  O78      1.0000 0.43431  0.27520  0.70233  Biso   1.000  O
  O79      1.0000 0.43431  0.56374  0.58382  Biso   1.000  O
  O80      1.0000 0.43431  0.44523  0.70233  Biso   1.000  O
  O81      1.0000 0.72284  0.27520  0.41379  Biso   1.000  O
  O82      1.0000 0.60434  0.27520  0.41379  Biso   1.000  O
  O83      1.0000 0.26309  0.79555  0.22427  Biso   1.000  O
  O84      1.0000 0.26309  0.57416  0.22427  Biso   1.000  O
  O85      1.0000 0.97296  0.08568  0.71275  Biso   1.000  O
  O86      1.0000 0.75157  0.08568  0.93414  Biso   1.000  O
  O87      1.0000 0.75157  0.08568  0.22427  Biso   1.000  O
  O88      1.0000 0.26309  0.57416  0.93414  Biso   1.000  O
  O89      1.0000 0.26309  0.79555  0.71275  Biso   1.000  O
  O90      1.0000 0.26309  0.08568  0.93414  Biso   1.000  O
  O91      1.0000 0.26309  0.08568  0.71275  Biso   1.000  O
  O92      1.0000 0.75157  0.79555  0.22427  Biso   1.000  O
  O93      1.0000 0.97296  0.57416  0.22427  Biso   1.000  O
  O94      1.0000 0.34853  0.70095  0.32803  Biso   1.000  O
  O95      1.0000 0.34853  0.47956  0.32803  Biso   1.000  O
  O96      1.0000 0.63866  0.18943  0.83954  Biso   1.000  O
  O97      1.0000 0.86005  0.18943  0.61816  Biso   1.000  O
  O98      1.0000 0.63866  0.70095  0.32803  Biso   1.000  O
  O99      1.0000 0.86005  0.47956  0.32803  Biso   1.000  O
  O100     1.0000 0.34853  0.18943  0.61816  Biso   1.000  O
  O101     1.0000 0.34853  0.18943  0.83954  Biso   1.000  O
  O102     1.0000 0.34853  0.47956  0.83954  Biso   1.000  O
  O103     1.0000 0.86005  0.18943  0.32803  Biso   1.000  O
  O104     1.0000 0.63866  0.18943  0.32803  Biso   1.000  O
  O105     1.0000 0.34853  0.70095  0.61816  Biso   1.000  O
