data_image0
_cell_length_a       18.2422
_cell_length_b       18.2422
_cell_length_c       18.2422
_cell_angle_alpha    60
_cell_angle_beta     60
_cell_angle_gamma    60

_symmetry_space_group_name_H-M    "P 1"
_symmetry_int_tables_number       1

loop_
  _symmetry_equiv_pos_as_xyz
  'x, y, z'

loop_
  _atom_site_label
  _atom_site_occupancy
  _atom_site_fract_x
  _atom_site_fract_y
  _atom_site_fract_z
  _atom_site_thermal_displace_type
  _atom_site_B_iso_or_equiv
  _atom_site_type_symbol
  Zn1      1.0000 0.29356  0.29355  0.11934  Biso   1.000  Zn
  Zn2      1.0000 0.29356  0.29355  0.29355  Biso   1.000  Zn
  Zn3      1.0000 0.11935  0.29355  0.29355  Biso   1.000  Zn
  Zn4      1.0000 0.29356  0.11934  0.29355  Biso   1.000  Zn
  Zn5      1.0000 0.70644  0.70645  0.88066  Biso   1.000  Zn
  Zn6      1.0000 0.70644  0.70645  0.70645  Biso   1.000  Zn
  Zn7      1.0000 0.70644  0.88066  0.70645  Biso   1.000  Zn
  Zn8      1.0000 0.88065  0.70645  0.70645  Biso   1.000  Zn
  H1       1.0000 0.45610  0.45610  0.93590  Biso   1.000  H
  H2       1.0000 0.45610  0.45610  0.15190  Biso   1.000  H
  H3       1.0000 0.93590  0.15190  0.45610  Biso   1.000  H
  H4       1.0000 0.15190  0.93590  0.45610  Biso   1.000  H
  H5       1.0000 0.45610  0.93590  0.15190  Biso   1.000  H
  H6       1.0000 0.45610  0.15190  0.93590  Biso   1.000  H
  H7       1.0000 0.93590  0.45610  0.45610  Biso   1.000  H
  H8       1.0000 0.15190  0.45610  0.45610  Biso   1.000  H
  H9       1.0000 0.45610  0.15190  0.45610  Biso   1.000  H
  H10      1.0000 0.45610  0.93590  0.45610  Biso   1.000  H
  H11      1.0000 0.93590  0.45610  0.15190  Biso   1.000  H
  H12      1.0000 0.15190  0.45610  0.93590  Biso   1.000  H
  H13      1.0000 0.54390  0.54390  0.06410  Biso   1.000  H
  H14      1.0000 0.54390  0.54390  0.84810  Biso   1.000  H
  H15      1.0000 0.84810  0.06410  0.54390  Biso   1.000  H
  H16      1.0000 0.06410  0.84810  0.54390  Biso   1.000  H
  H17      1.0000 0.06410  0.54390  0.84810  Biso   1.000  H
  H18      1.0000 0.84810  0.54390  0.06410  Biso   1.000  H
  H19      1.0000 0.54390  0.06410  0.54390  Biso   1.000  H
  H20      1.0000 0.54390  0.84810  0.54390  Biso   1.000  H
  H21      1.0000 0.84810  0.54390  0.54390  Biso   1.000  H
  H22      1.0000 0.06410  0.54390  0.54390  Biso   1.000  H
  H23      1.0000 0.54390  0.06410  0.84810  Biso   1.000  H
  H24      1.0000 0.54390  0.84810  0.06410  Biso   1.000  H
  C1       1.0000 0.47369  0.47369  0.96285  Biso   1.000  C
  C2       1.0000 0.47369  0.47369  0.08977  Biso   1.000  C
  C3       1.0000 0.96285  0.08977  0.47369  Biso   1.000  C
  C4       1.0000 0.08977  0.96285  0.47369  Biso   1.000  C
  C5       1.0000 0.47369  0.96285  0.08977  Biso   1.000  C
  C6       1.0000 0.47369  0.08977  0.96285  Biso   1.000  C
  C7       1.0000 0.96285  0.47369  0.47369  Biso   1.000  C
  C8       1.0000 0.08977  0.47369  0.47369  Biso   1.000  C
  C9       1.0000 0.47369  0.08977  0.47369  Biso   1.000  C
  C10      1.0000 0.47369  0.96285  0.47369  Biso   1.000  C
  C11      1.0000 0.96285  0.47369  0.08977  Biso   1.000  C
  C12      1.0000 0.08977  0.47369  0.96285  Biso   1.000  C
  C13      1.0000 0.52631  0.52631  0.03715  Biso   1.000  C
  C14      1.0000 0.52631  0.52631  0.91023  Biso   1.000  C
  C15      1.0000 0.91023  0.03715  0.52631  Biso   1.000  C
  C16      1.0000 0.03715  0.91023  0.52631  Biso   1.000  C
  C17      1.0000 0.03715  0.52631  0.91023  Biso   1.000  C
  C18      1.0000 0.91023  0.52631  0.03715  Biso   1.000  C
  C19      1.0000 0.52631  0.03715  0.52631  Biso   1.000  C
  C20      1.0000 0.52631  0.91023  0.52631  Biso   1.000  C
  C21      1.0000 0.91023  0.52631  0.52631  Biso   1.000  C
  C22      1.0000 0.03715  0.52631  0.52631  Biso   1.000  C
  C23      1.0000 0.52631  0.03715  0.91023  Biso   1.000  C
  C24      1.0000 0.52631  0.91023  0.03715  Biso   1.000  C
  C25      1.0000 0.38870  0.38870  0.11130  Biso   1.000  C
  C26      1.0000 0.44610  0.44610  0.05390  Biso   1.000  C
  C27      1.0000 0.11130  0.11130  0.38870  Biso   1.000  C
  C28      1.0000 0.05390  0.05390  0.44610  Biso   1.000  C
  C29      1.0000 0.38870  0.11130  0.11130  Biso   1.000  C
  C30      1.0000 0.44610  0.05390  0.05390  Biso   1.000  C
  C31      1.0000 0.11130  0.38870  0.38870  Biso   1.000  C
  C32      1.0000 0.05390  0.44610  0.44610  Biso   1.000  C
  C33      1.0000 0.38870  0.11130  0.38870  Biso   1.000  C
  C34      1.0000 0.44610  0.05390  0.44610  Biso   1.000  C
  C35      1.0000 0.11130  0.38870  0.11130  Biso   1.000  C
  C36      1.0000 0.05390  0.44610  0.05390  Biso   1.000  C
  C37      1.0000 0.61130  0.61130  0.88870  Biso   1.000  C
  C38      1.0000 0.55390  0.55390  0.94610  Biso   1.000  C
  C39      1.0000 0.88870  0.88870  0.61130  Biso   1.000  C
  C40      1.0000 0.94610  0.94610  0.55390  Biso   1.000  C
  C41      1.0000 0.88870  0.61130  0.88870  Biso   1.000  C
  C42      1.0000 0.94610  0.55390  0.94610  Biso   1.000  C
  C43      1.0000 0.61130  0.88870  0.61130  Biso   1.000  C
  C44      1.0000 0.55390  0.94610  0.55390  Biso   1.000  C
  C45      1.0000 0.88870  0.61130  0.61130  Biso   1.000  C
  C46      1.0000 0.94610  0.55390  0.55390  Biso   1.000  C
  C47      1.0000 0.61130  0.88870  0.88870  Biso   1.000  C
  C48      1.0000 0.55390  0.94610  0.94610  Biso   1.000  C
  O1       1.0000 0.25000  0.25000  0.25000  Biso   1.000  O
  O2       1.0000 0.75000  0.75000  0.75000  Biso   1.000  O
  O3       1.0000 0.36609  0.36609  0.07323  Biso   1.000  O
  O4       1.0000 0.36609  0.36609  0.19459  Biso   1.000  O
  O5       1.0000 0.07323  0.19459  0.36609  Biso   1.000  O
  O6       1.0000 0.19459  0.07323  0.36609  Biso   1.000  O
  O7       1.0000 0.36609  0.07323  0.19459  Biso   1.000  O
  O8       1.0000 0.36609  0.19459  0.07323  Biso   1.000  O
  O9       1.0000 0.07323  0.36609  0.36609  Biso   1.000  O
  O10      1.0000 0.19459  0.36609  0.36609  Biso   1.000  O
  O11      1.0000 0.36609  0.19459  0.36609  Biso   1.000  O
  O12      1.0000 0.36609  0.07323  0.36609  Biso   1.000  O
  O13      1.0000 0.07323  0.36609  0.19459  Biso   1.000  O
  O14      1.0000 0.19459  0.36609  0.07323  Biso   1.000  O
  O15      1.0000 0.63391  0.63391  0.92677  Biso   1.000  O
  O16      1.0000 0.63391  0.63391  0.80541  Biso   1.000  O
  O17      1.0000 0.80541  0.92677  0.63391  Biso   1.000  O
  O18      1.0000 0.92677  0.80541  0.63391  Biso   1.000  O
  O19      1.0000 0.92677  0.63391  0.80541  Biso   1.000  O
  O20      1.0000 0.80541  0.63391  0.92677  Biso   1.000  O
  O21      1.0000 0.63391  0.92677  0.63391  Biso   1.000  O
  O22      1.0000 0.63391  0.80541  0.63391  Biso   1.000  O
  O23      1.0000 0.80541  0.63391  0.63391  Biso   1.000  O
  O24      1.0000 0.92677  0.63391  0.63391  Biso   1.000  O
  O25      1.0000 0.63391  0.92677  0.80541  Biso   1.000  O
  O26      1.0000 0.63391  0.80541  0.92677  Biso   1.000  O
  Zn9      1.0000 0.00551  0.84142  0.13428  Biso   1.000  Zn
  Zn10     1.0000 0.83265  0.01428  0.13428  Biso   1.000  Zn
  Zn11     1.0000 0.42280  0.43157  0.72443  Biso   1.000  Zn
  Zn12     1.0000 0.00551  0.01428  0.13428  Biso   1.000  Zn
  Zn13     1.0000 0.42280  0.60443  0.55156  Biso   1.000  Zn
  Zn14     1.0000 0.42280  0.43157  0.55156  Biso   1.000  Zn
  Zn15     1.0000 0.59567  0.43157  0.55156  Biso   1.000  Zn
  Zn16     1.0000 0.00551  0.01428  0.96141  Biso   1.000  Zn
  C49      1.0000 0.62771  0.75955  0.37155  Biso   1.000  C
  C50      1.0000 0.18553  0.68630  0.31429  Biso   1.000  C
  C51      1.0000 0.75078  0.25156  0.37155  Biso   1.000  C
  C52      1.0000 0.15694  0.77642  0.89642  Biso   1.000  C
  C53      1.0000 0.62771  0.25156  0.87955  Biso   1.000  C
  C54      1.0000 0.76766  0.77642  0.28570  Biso   1.000  C
  C55      1.0000 0.60230  0.61106  0.45850  Biso   1.000  C
  C56      1.0000 0.67753  0.80938  0.31429  Biso   1.000  C
  C57      1.0000 0.80061  0.68630  0.31429  Biso   1.000  C
  C58      1.0000 0.15694  0.16571  0.89642  Biso   1.000  C
  C59      1.0000 0.15694  0.77642  0.28570  Biso   1.000  C
  C60      1.0000 0.24279  0.75955  0.75647  Biso   1.000  C
  C61      1.0000 0.24279  0.63647  0.37155  Biso   1.000  C
  C62      1.0000 0.09858  0.83479  0.22734  Biso   1.000  C
  C63      1.0000 0.82602  0.10734  0.95478  Biso   1.000  C
  C64      1.0000 0.60230  0.33851  0.45850  Biso   1.000  C
  C65      1.0000 0.82602  0.10734  0.22734  Biso   1.000  C
  C66      1.0000 0.82602  0.83479  0.22734  Biso   1.000  C
  C67      1.0000 0.75078  0.63647  0.37155  Biso   1.000  C
  C68      1.0000 0.80061  0.19429  0.31429  Biso   1.000  C
  C69      1.0000 0.32974  0.61106  0.45850  Biso   1.000  C
  C70      1.0000 0.67753  0.19429  0.31429  Biso   1.000  C
  C71      1.0000 0.24279  0.63647  0.87955  Biso   1.000  C
  C72      1.0000 0.09858  0.10734  0.95478  Biso   1.000  C
  C73      1.0000 0.67753  0.19429  0.92937  Biso   1.000  C
  C74      1.0000 0.60230  0.33851  0.73106  Biso   1.000  C
  C75      1.0000 0.27138  0.66943  0.40014  Biso   1.000  C
  C76      1.0000 0.62771  0.25156  0.37155  Biso   1.000  C
  C77      1.0000 0.18553  0.19429  0.80629  Biso   1.000  C
  C78      1.0000 0.09858  0.83479  0.95478  Biso   1.000  C
  C79      1.0000 0.75078  0.25156  0.75647  Biso   1.000  C
  C80      1.0000 0.18553  0.19429  0.92937  Biso   1.000  C
  C81      1.0000 0.66066  0.28014  0.78942  Biso   1.000  C
  C82      1.0000 0.24279  0.75955  0.37155  Biso   1.000  C
  C83      1.0000 0.24279  0.25156  0.75647  Biso   1.000  C
  C84      1.0000 0.32974  0.61106  0.73106  Biso   1.000  C
  C85      1.0000 0.24279  0.25156  0.87955  Biso   1.000  C
  C86      1.0000 0.18553  0.68630  0.92937  Biso   1.000  C
  C87      1.0000 0.18553  0.80938  0.80629  Biso   1.000  C
  C88      1.0000 0.76766  0.16571  0.28570  Biso   1.000  C
  C89      1.0000 0.18553  0.80938  0.31429  Biso   1.000  C
  C90      1.0000 0.66066  0.28014  0.40014  Biso   1.000  C
  C91      1.0000 0.27138  0.66943  0.78942  Biso   1.000  C
  C92      1.0000 0.32974  0.33851  0.73106  Biso   1.000  C
  C93      1.0000 0.27138  0.28014  0.78942  Biso   1.000  C
  C94      1.0000 0.76766  0.16571  0.89642  Biso   1.000  C
  C95      1.0000 0.80061  0.19429  0.80629  Biso   1.000  C
  C96      1.0000 0.66066  0.66943  0.40014  Biso   1.000  C
  O27      1.0000 0.35048  0.65323  0.47925  Biso   1.000  O
  O28      1.0000 0.35048  0.65323  0.64740  Biso   1.000  O
  O29      1.0000 0.07783  0.79262  0.20659  Biso   1.000  O
  O30      1.0000 0.51864  0.35925  0.77322  Biso   1.000  O
  O31      1.0000 0.35048  0.35925  0.77322  Biso   1.000  O
  O32      1.0000 0.07783  0.79262  0.03843  Biso   1.000  O
  O33      1.0000 0.90967  0.08660  0.91262  Biso   1.000  O
  O34      1.0000 0.07783  0.08660  0.91262  Biso   1.000  O
  O35      1.0000 0.35048  0.52741  0.47925  Biso   1.000  O
  O36      1.0000 0.64446  0.52741  0.47925  Biso   1.000  O
  O37      1.0000 0.07783  0.91844  0.20659  Biso   1.000  O
  O38      1.0000 0.35048  0.35925  0.64740  Biso   1.000  O
  O39      1.0000 0.90967  0.08660  0.20659  Biso   1.000  O
  O40      1.0000 0.78386  0.91844  0.20659  Biso   1.000  O
  O41      1.0000 0.78386  0.08660  0.20659  Biso   1.000  O
  O42      1.0000 0.35048  0.52741  0.77322  Biso   1.000  O
  O43      1.0000 0.46602  0.47479  0.59478  Biso   1.000  O
  O44      1.0000 0.51864  0.65323  0.47925  Biso   1.000  O
  O45      1.0000 0.90967  0.79262  0.20659  Biso   1.000  O
  O46      1.0000 0.78386  0.08660  0.03843  Biso   1.000  O
  O47      1.0000 0.64446  0.35925  0.47925  Biso   1.000  O
  O48      1.0000 0.07783  0.08660  0.03843  Biso   1.000  O
  O49      1.0000 0.96230  0.97107  0.09106  Biso   1.000  O
  O50      1.0000 0.51864  0.35925  0.47925  Biso   1.000  O
  O51      1.0000 0.07783  0.91844  0.91262  Biso   1.000  O
  O52      1.0000 0.64446  0.35925  0.64740  Biso   1.000  O
  H25      1.0000 0.55149  0.79158  0.39365  Biso   1.000  H
  H26      1.0000 0.16567  0.65032  0.29444  Biso   1.000  H
  H27      1.0000 0.78281  0.27365  0.39365  Biso   1.000  H
  H28      1.0000 0.55149  0.27365  0.91158  Biso   1.000  H
  H29      1.0000 0.64550  0.88560  0.29219  Biso   1.000  H
  H30      1.0000 0.87629  0.65032  0.29444  Biso   1.000  H
  H31      1.0000 0.26489  0.79158  0.68025  Biso   1.000  H
  H32      1.0000 0.26489  0.56025  0.39365  Biso   1.000  H
  H33      1.0000 0.78281  0.56025  0.39365  Biso   1.000  H
  H34      1.0000 0.87683  0.17220  0.29219  Biso   1.000  H
  H35      1.0000 0.64550  0.17220  0.29219  Biso   1.000  H
  H36      1.0000 0.26489  0.56025  0.91158  Biso   1.000  H
  H37      1.0000 0.64550  0.17220  0.00559  Biso   1.000  H
  H38      1.0000 0.55149  0.27365  0.39365  Biso   1.000  H
  H39      1.0000 0.16567  0.17444  0.77031  Biso   1.000  H
  H40      1.0000 0.78676  0.27141  0.68078  Biso   1.000  H
  H41      1.0000 0.16567  0.17444  0.00505  Biso   1.000  H
  H42      1.0000 0.26264  0.79553  0.39140  Biso   1.000  H
  H43      1.0000 0.26489  0.27365  0.68025  Biso   1.000  H
  H44      1.0000 0.26489  0.27365  0.91158  Biso   1.000  H
  H45      1.0000 0.16567  0.65032  0.00505  Biso   1.000  H
  H46      1.0000 0.16567  0.88506  0.77031  Biso   1.000  H
  H47      1.0000 0.16567  0.88506  0.29444  Biso   1.000  H
