data_image0
_cell_length_a       18.228
_cell_length_b       18.228
_cell_length_c       18.228
_cell_angle_alpha    60
_cell_angle_beta     60
_cell_angle_gamma    60

_symmetry_space_group_name_H-M    "P 1"
_symmetry_int_tables_number       1

loop_
  _symmetry_equiv_pos_as_xyz
  'x, y, z'

loop_
  _atom_site_label
  _atom_site_occupancy
  _atom_site_fract_x
  _atom_site_fract_y
  _atom_site_fract_z
  _atom_site_thermal_displace_type
  _atom_site_B_iso_or_equiv
  _atom_site_type_symbol
  C1       1.0000 0.29358  0.29359  0.11924  Biso   1.000  C
  C2       1.0000 0.29358  0.29359  0.29359  Biso   1.000  C
  C3       1.0000 0.11923  0.29359  0.29359  Biso   1.000  C
  C4       1.0000 0.29358  0.11924  0.29359  Biso   1.000  C
  C5       1.0000 0.70642  0.70641  0.88076  Biso   1.000  C
  C6       1.0000 0.70642  0.70641  0.70641  Biso   1.000  C
  C7       1.0000 0.70642  0.88076  0.70641  Biso   1.000  C
  C8       1.0000 0.88077  0.70641  0.70641  Biso   1.000  C
  C9       1.0000 0.45570  0.45570  0.93670  Biso   1.000  C
  C10      1.0000 0.45570  0.45570  0.15190  Biso   1.000  C
  C11      1.0000 0.93670  0.15190  0.45570  Biso   1.000  C
  C12      1.0000 0.15190  0.93670  0.45570  Biso   1.000  C
  C13      1.0000 0.45570  0.93670  0.15190  Biso   1.000  C
  C14      1.0000 0.45570  0.15190  0.93670  Biso   1.000  C
  C15      1.0000 0.93670  0.45570  0.45570  Biso   1.000  C
  C16      1.0000 0.15190  0.45570  0.45570  Biso   1.000  C
  C17      1.0000 0.45570  0.15190  0.45570  Biso   1.000  C
  C18      1.0000 0.45570  0.93670  0.45570  Biso   1.000  C
  C19      1.0000 0.93670  0.45570  0.15190  Biso   1.000  C
  C20      1.0000 0.15190  0.45570  0.93670  Biso   1.000  C
  C21      1.0000 0.54430  0.54430  0.06330  Biso   1.000  C
  C22      1.0000 0.54430  0.54430  0.84810  Biso   1.000  C
  C23      1.0000 0.84810  0.06330  0.54430  Biso   1.000  C
  C24      1.0000 0.06330  0.84810  0.54430  Biso   1.000  C
  C25      1.0000 0.06330  0.54430  0.84810  Biso   1.000  C
  C26      1.0000 0.84810  0.54430  0.06330  Biso   1.000  C
  C27      1.0000 0.54430  0.06330  0.54430  Biso   1.000  C
  C28      1.0000 0.54430  0.84810  0.54430  Biso   1.000  C
  C29      1.0000 0.84810  0.54430  0.54430  Biso   1.000  C
  C30      1.0000 0.06330  0.54430  0.54430  Biso   1.000  C
  C31      1.0000 0.54430  0.06330  0.84810  Biso   1.000  C
  C32      1.0000 0.54430  0.84810  0.06330  Biso   1.000  C
  C33      1.0000 0.47340  0.47340  0.96356  Biso   1.000  C
  C34      1.0000 0.47340  0.47340  0.08964  Biso   1.000  C
  C35      1.0000 0.96356  0.08964  0.47340  Biso   1.000  C
  C36      1.0000 0.08964  0.96356  0.47340  Biso   1.000  C
  C37      1.0000 0.47340  0.96356  0.08964  Biso   1.000  C
  C38      1.0000 0.47340  0.08964  0.96356  Biso   1.000  C
  C39      1.0000 0.96356  0.47340  0.47340  Biso   1.000  C
  C40      1.0000 0.08964  0.47340  0.47340  Biso   1.000  C
  C41      1.0000 0.47340  0.08964  0.47340  Biso   1.000  C
  C42      1.0000 0.47340  0.96356  0.47340  Biso   1.000  C
  C43      1.0000 0.96356  0.47340  0.08964  Biso   1.000  C
  C44      1.0000 0.08964  0.47340  0.96356  Biso   1.000  C
  C45      1.0000 0.52660  0.52660  0.03644  Biso   1.000  C
  C46      1.0000 0.52660  0.52660  0.91036  Biso   1.000  C
  C47      1.0000 0.91036  0.03644  0.52660  Biso   1.000  C
  C48      1.0000 0.03644  0.91036  0.52660  Biso   1.000  C
  C49      1.0000 0.03644  0.52660  0.91036  Biso   1.000  C
  C50      1.0000 0.91036  0.52660  0.03644  Biso   1.000  C
  C51      1.0000 0.52660  0.03644  0.52660  Biso   1.000  C
  C52      1.0000 0.52660  0.91036  0.52660  Biso   1.000  C
  C53      1.0000 0.91036  0.52660  0.52660  Biso   1.000  C
  C54      1.0000 0.03644  0.52660  0.52660  Biso   1.000  C
  C55      1.0000 0.52660  0.03644  0.91036  Biso   1.000  C
  C56      1.0000 0.52660  0.91036  0.03644  Biso   1.000  C
  C57      1.0000 0.38850  0.38850  0.11150  Biso   1.000  C
  C58      1.0000 0.44610  0.44610  0.05390  Biso   1.000  C
  C59      1.0000 0.11150  0.11150  0.38850  Biso   1.000  C
  C60      1.0000 0.05390  0.05390  0.44610  Biso   1.000  C
  C61      1.0000 0.38850  0.11150  0.11150  Biso   1.000  C
  C62      1.0000 0.44610  0.05390  0.05390  Biso   1.000  C
  C63      1.0000 0.11150  0.38850  0.38850  Biso   1.000  C
  C64      1.0000 0.05390  0.44610  0.44610  Biso   1.000  C
  C65      1.0000 0.38850  0.11150  0.38850  Biso   1.000  C
  C66      1.0000 0.44610  0.05390  0.44610  Biso   1.000  C
  C67      1.0000 0.11150  0.38850  0.11150  Biso   1.000  C
  C68      1.0000 0.05390  0.44610  0.05390  Biso   1.000  C
  C69      1.0000 0.61150  0.61150  0.88850  Biso   1.000  C
  C70      1.0000 0.55390  0.55390  0.94610  Biso   1.000  C
  C71      1.0000 0.88850  0.88850  0.61150  Biso   1.000  C
  C72      1.0000 0.94610  0.94610  0.55390  Biso   1.000  C
  C73      1.0000 0.88850  0.61150  0.88850  Biso   1.000  C
  C74      1.0000 0.94610  0.55390  0.94610  Biso   1.000  C
  C75      1.0000 0.61150  0.88850  0.61150  Biso   1.000  C
  C76      1.0000 0.55390  0.94610  0.55390  Biso   1.000  C
  C77      1.0000 0.88850  0.61150  0.61150  Biso   1.000  C
  C78      1.0000 0.94610  0.55390  0.55390  Biso   1.000  C
  C79      1.0000 0.61150  0.88850  0.88850  Biso   1.000  C
  C80      1.0000 0.55390  0.94610  0.94610  Biso   1.000  C
  C81      1.0000 0.25000  0.25000  0.25000  Biso   1.000  C
  C82      1.0000 0.75000  0.75000  0.75000  Biso   1.000  C
  C83      1.0000 0.36610  0.36610  0.07322  Biso   1.000  C
  C84      1.0000 0.36610  0.36610  0.19458  Biso   1.000  C
  C85      1.0000 0.07322  0.19458  0.36610  Biso   1.000  C
  C86      1.0000 0.19458  0.07322  0.36610  Biso   1.000  C
  C87      1.0000 0.36610  0.07322  0.19458  Biso   1.000  C
  C88      1.0000 0.36610  0.19458  0.07322  Biso   1.000  C
  C89      1.0000 0.07322  0.36610  0.36610  Biso   1.000  C
  C90      1.0000 0.19458  0.36610  0.36610  Biso   1.000  C
  C91      1.0000 0.36610  0.19458  0.36610  Biso   1.000  C
  C92      1.0000 0.36610  0.07322  0.36610  Biso   1.000  C
  C93      1.0000 0.07322  0.36610  0.19458  Biso   1.000  C
  C94      1.0000 0.19458  0.36610  0.07322  Biso   1.000  C
  C95      1.0000 0.63390  0.63390  0.92678  Biso   1.000  C
  C96      1.0000 0.63390  0.63390  0.80542  Biso   1.000  C
  C97      1.0000 0.80542  0.92678  0.63390  Biso   1.000  C
  C98      1.0000 0.92678  0.80542  0.63390  Biso   1.000  C
  C99      1.0000 0.92678  0.63390  0.80542  Biso   1.000  C
  C100     1.0000 0.80542  0.63390  0.92678  Biso   1.000  C
  C101     1.0000 0.63390  0.92678  0.63390  Biso   1.000  C
  C102     1.0000 0.63390  0.80542  0.63390  Biso   1.000  C
  C103     1.0000 0.80542  0.63390  0.63390  Biso   1.000  C
  C104     1.0000 0.92678  0.63390  0.63390  Biso   1.000  C
  C105     1.0000 0.63390  0.92678  0.80542  Biso   1.000  C
  C106     1.0000 0.63390  0.80542  0.92678  Biso   1.000  C
  O1       1.0000 0.92887  0.92782  0.06719  Biso   1.000  O
  O2       1.0000 0.92887  0.10197  0.06719  Biso   1.000  O
  O3       1.0000 0.75472  0.10197  0.06719  Biso   1.000  O
  O4       1.0000 0.92887  0.10197  0.89304  Biso   1.000  O
  O5       1.0000 0.34824  0.51275  0.47797  Biso   1.000  O
  O6       1.0000 0.34824  0.68691  0.47797  Biso   1.000  O
  O7       1.0000 0.52240  0.51275  0.47797  Biso   1.000  O
  O8       1.0000 0.34824  0.51275  0.65212  Biso   1.000  O
  O9       1.0000 0.79093  0.74148  0.22933  Biso   1.000  O
  O10      1.0000 0.09102  0.26412  0.92925  Biso   1.000  O
  O11      1.0000 0.56838  0.96403  0.22933  Biso   1.000  O
  O12      1.0000 0.09102  0.26412  0.70670  Biso   1.000  O
  O13      1.0000 0.56838  0.26412  0.92925  Biso   1.000  O
  O14      1.0000 0.09102  0.96403  0.22933  Biso   1.000  O
  O15      1.0000 0.79093  0.26412  0.70670  Biso   1.000  O
  O16      1.0000 0.09102  0.74148  0.22933  Biso   1.000  O
  O17      1.0000 0.09102  0.96403  0.70670  Biso   1.000  O
  O18      1.0000 0.79093  0.26412  0.22933  Biso   1.000  O
  O19      1.0000 0.09102  0.74148  0.92925  Biso   1.000  O
  O20      1.0000 0.56838  0.26412  0.22933  Biso   1.000  O
  O21      1.0000 0.48618  0.35061  0.31583  Biso   1.000  O
  O22      1.0000 0.18610  0.87324  0.61591  Biso   1.000  O
  O23      1.0000 0.70874  0.35061  0.31583  Biso   1.000  O
  O24      1.0000 0.18610  0.65069  0.83846  Biso   1.000  O
  O25      1.0000 0.70874  0.35061  0.61591  Biso   1.000  O
  O26      1.0000 0.18610  0.87324  0.31583  Biso   1.000  O
  O27      1.0000 0.48618  0.35061  0.83846  Biso   1.000  O
  O28      1.0000 0.18610  0.65069  0.31583  Biso   1.000  O
  O29      1.0000 0.18610  0.35061  0.83846  Biso   1.000  O
  O30      1.0000 0.48618  0.87324  0.31583  Biso   1.000  O
  O31      1.0000 0.18610  0.35061  0.61591  Biso   1.000  O
  O32      1.0000 0.70874  0.65069  0.31583  Biso   1.000  O
  O33      1.0000 0.72737  0.76814  0.24778  Biso   1.000  O
  O34      1.0000 0.10947  0.28256  0.86569  Biso   1.000  O
  O35      1.0000 0.59505  0.90047  0.24778  Biso   1.000  O
  O36      1.0000 0.10947  0.28256  0.73336  Biso   1.000  O
  O37      1.0000 0.59505  0.28256  0.86569  Biso   1.000  O
  O38      1.0000 0.10947  0.90047  0.24778  Biso   1.000  O
  O39      1.0000 0.72737  0.28256  0.73336  Biso   1.000  O
  O40      1.0000 0.10947  0.76814  0.24778  Biso   1.000  O
  O41      1.0000 0.10947  0.90047  0.73336  Biso   1.000  O
  O42      1.0000 0.72737  0.28256  0.24778  Biso   1.000  O
  O43      1.0000 0.10947  0.76814  0.86569  Biso   1.000  O
  O44      1.0000 0.59505  0.28256  0.24778  Biso   1.000  O
  O45      1.0000 0.54975  0.33216  0.29738  Biso   1.000  O
  O46      1.0000 0.16765  0.84658  0.67947  Biso   1.000  O
  O47      1.0000 0.68207  0.33216  0.29738  Biso   1.000  O
  O48      1.0000 0.16765  0.71425  0.81180  Biso   1.000  O
  O49      1.0000 0.68207  0.33216  0.67947  Biso   1.000  O
  O50      1.0000 0.16765  0.84658  0.29738  Biso   1.000  O
  O51      1.0000 0.54975  0.33216  0.81180  Biso   1.000  O
  O52      1.0000 0.16765  0.71425  0.29738  Biso   1.000  O
  O53      1.0000 0.16765  0.33216  0.81180  Biso   1.000  O
  O54      1.0000 0.54975  0.84658  0.29738  Biso   1.000  O
  O55      1.0000 0.16765  0.33216  0.67947  Biso   1.000  O
  O56      1.0000 0.68207  0.71425  0.29738  Biso   1.000  O
  O57      1.0000 0.74618  0.91928  0.16281  Biso   1.000  O
  O58      1.0000 0.68830  0.86140  0.22069  Biso   1.000  O
  O59      1.0000 0.02449  0.19759  0.88450  Biso   1.000  O
  O60      1.0000 0.08237  0.25547  0.82662  Biso   1.000  O
  O61      1.0000 0.74618  0.19759  0.88450  Biso   1.000  O
  O62      1.0000 0.68830  0.25547  0.82662  Biso   1.000  O
  O63      1.0000 0.02449  0.91928  0.16281  Biso   1.000  O
  O64      1.0000 0.08237  0.86140  0.22069  Biso   1.000  O
  O65      1.0000 0.02449  0.91928  0.88450  Biso   1.000  O
  O66      1.0000 0.08237  0.86140  0.82662  Biso   1.000  O
  O67      1.0000 0.74618  0.19759  0.16281  Biso   1.000  O
  O68      1.0000 0.68830  0.25547  0.22069  Biso   1.000  O
  O69      1.0000 0.53094  0.41713  0.38235  Biso   1.000  O
  O70      1.0000 0.58881  0.35926  0.32447  Biso   1.000  O
  O71      1.0000 0.25263  0.69544  0.66066  Biso   1.000  O
  O72      1.0000 0.19475  0.75332  0.71854  Biso   1.000  O
  O73      1.0000 0.53094  0.41713  0.66066  Biso   1.000  O
  O74      1.0000 0.58881  0.35926  0.71854  Biso   1.000  O
  O75      1.0000 0.25263  0.69544  0.38235  Biso   1.000  O
  O76      1.0000 0.19475  0.75332  0.32447  Biso   1.000  O
  O77      1.0000 0.25263  0.41713  0.66066  Biso   1.000  O
  O78      1.0000 0.19475  0.35926  0.71854  Biso   1.000  O
  O79      1.0000 0.53094  0.69544  0.38235  Biso   1.000  O
  O80      1.0000 0.58881  0.75332  0.32447  Biso   1.000  O
  O81      1.0000 0.88534  0.05844  0.02365  Biso   1.000  O
  O82      1.0000 0.39178  0.55629  0.52151  Biso   1.000  O
  O83      1.0000 0.83014  0.87999  0.14047  Biso   1.000  O
  O84      1.0000 0.00216  0.17526  0.96846  Biso   1.000  O
  O85      1.0000 0.70689  0.00324  0.14047  Biso   1.000  O
  O86      1.0000 0.00216  0.17526  0.84521  Biso   1.000  O
  O87      1.0000 0.70689  0.17526  0.96846  Biso   1.000  O
  O88      1.0000 0.00216  0.00324  0.14047  Biso   1.000  O
  O89      1.0000 0.83014  0.17526  0.84521  Biso   1.000  O
  O90      1.0000 0.00216  0.87999  0.14047  Biso   1.000  O
  O91      1.0000 0.00216  0.00324  0.84521  Biso   1.000  O
  O92      1.0000 0.83014  0.17526  0.14047  Biso   1.000  O
  O93      1.0000 0.00216  0.87999  0.96846  Biso   1.000  O
  O94      1.0000 0.70689  0.17526  0.14047  Biso   1.000  O
  O95      1.0000 0.44698  0.43947  0.40469  Biso   1.000  O
  O96      1.0000 0.27496  0.73473  0.57670  Biso   1.000  O
  O97      1.0000 0.57022  0.43947  0.40469  Biso   1.000  O
  O98      1.0000 0.27496  0.61148  0.69995  Biso   1.000  O
  O99      1.0000 0.57022  0.43947  0.57670  Biso   1.000  O
  O100     1.0000 0.27496  0.73473  0.40469  Biso   1.000  O
  O101     1.0000 0.44698  0.43947  0.69995  Biso   1.000  O
  O102     1.0000 0.27496  0.61148  0.40469  Biso   1.000  O
  O103     1.0000 0.27496  0.43947  0.69995  Biso   1.000  O
  O104     1.0000 0.44698  0.73473  0.40469  Biso   1.000  O
  O105     1.0000 0.27496  0.43947  0.57670  Biso   1.000  O
