data_image0
_cell_length_a       18.2888
_cell_length_b       18.2888
_cell_length_c       18.2888
_cell_angle_alpha    60
_cell_angle_beta     60
_cell_angle_gamma    60

_symmetry_space_group_name_H-M    "P 1"
_symmetry_int_tables_number       1

loop_
  _symmetry_equiv_pos_as_xyz
  'x, y, z'

loop_
  _atom_site_label
  _atom_site_occupancy
  _atom_site_fract_x
  _atom_site_fract_y
  _atom_site_fract_z
  _atom_site_thermal_displace_type
  _atom_site_B_iso_or_equiv
  _atom_site_type_symbol
  C1       1.0000 0.29344  0.29345  0.11966  Biso   1.000  C
  C2       1.0000 0.29344  0.29345  0.29345  Biso   1.000  C
  C3       1.0000 0.11965  0.29345  0.29345  Biso   1.000  C
  C4       1.0000 0.29344  0.11966  0.29345  Biso   1.000  C
  C5       1.0000 0.70655  0.70656  0.88034  Biso   1.000  C
  C6       1.0000 0.70656  0.70655  0.70655  Biso   1.000  C
  C7       1.0000 0.70655  0.88034  0.70656  Biso   1.000  C
  C8       1.0000 0.88035  0.70655  0.70655  Biso   1.000  C
  C9       1.0000 0.45490  0.45490  0.93490  Biso   1.000  C
  C10      1.0000 0.45490  0.45490  0.15530  Biso   1.000  C
  C11      1.0000 0.93490  0.15530  0.45490  Biso   1.000  C
  C12      1.0000 0.15530  0.93490  0.45490  Biso   1.000  C
  C13      1.0000 0.45490  0.93490  0.15530  Biso   1.000  C
  C14      1.0000 0.45490  0.15530  0.93490  Biso   1.000  C
  C15      1.0000 0.93490  0.45490  0.45490  Biso   1.000  C
  C16      1.0000 0.15530  0.45490  0.45490  Biso   1.000  C
  C17      1.0000 0.45490  0.15530  0.45490  Biso   1.000  C
  C18      1.0000 0.45490  0.93490  0.45490  Biso   1.000  C
  C19      1.0000 0.93490  0.45490  0.15530  Biso   1.000  C
  C20      1.0000 0.15530  0.45490  0.93490  Biso   1.000  C
  C21      1.0000 0.54510  0.54510  0.06510  Biso   1.000  C
  C22      1.0000 0.54510  0.54510  0.84470  Biso   1.000  C
  C23      1.0000 0.84470  0.06510  0.54510  Biso   1.000  C
  C24      1.0000 0.06510  0.84470  0.54510  Biso   1.000  C
  C25      1.0000 0.06510  0.54510  0.84470  Biso   1.000  C
  C26      1.0000 0.84470  0.54510  0.06510  Biso   1.000  C
  C27      1.0000 0.54510  0.06510  0.54510  Biso   1.000  C
  C28      1.0000 0.54510  0.84470  0.54510  Biso   1.000  C
  C29      1.0000 0.84470  0.54510  0.54510  Biso   1.000  C
  C30      1.0000 0.06510  0.54510  0.54510  Biso   1.000  C
  C31      1.0000 0.54510  0.06510  0.84470  Biso   1.000  C
  C32      1.0000 0.54510  0.84470  0.06510  Biso   1.000  C
  C33      1.0000 0.47314  0.47314  0.96174  Biso   1.000  C
  C34      1.0000 0.47314  0.47314  0.09198  Biso   1.000  C
  C35      1.0000 0.96174  0.09198  0.47314  Biso   1.000  C
  C36      1.0000 0.09198  0.96174  0.47314  Biso   1.000  C
  C37      1.0000 0.47314  0.96174  0.09198  Biso   1.000  C
  C38      1.0000 0.47314  0.09198  0.96174  Biso   1.000  C
  C39      1.0000 0.96174  0.47314  0.47314  Biso   1.000  C
  C40      1.0000 0.09198  0.47314  0.47314  Biso   1.000  C
  C41      1.0000 0.47314  0.09198  0.47314  Biso   1.000  C
  C42      1.0000 0.47314  0.96174  0.47314  Biso   1.000  C
  C43      1.0000 0.96174  0.47314  0.09198  Biso   1.000  C
  C44      1.0000 0.09198  0.47314  0.96174  Biso   1.000  C
  C45      1.0000 0.52686  0.52686  0.03826  Biso   1.000  C
  C46      1.0000 0.52686  0.52686  0.90802  Biso   1.000  C
  C47      1.0000 0.90802  0.03826  0.52686  Biso   1.000  C
  C48      1.0000 0.03826  0.90802  0.52686  Biso   1.000  C
  C49      1.0000 0.03826  0.52686  0.90802  Biso   1.000  C
  C50      1.0000 0.90802  0.52686  0.03826  Biso   1.000  C
  C51      1.0000 0.52686  0.03826  0.52686  Biso   1.000  C
  C52      1.0000 0.52686  0.90802  0.52686  Biso   1.000  C
  C53      1.0000 0.90802  0.52686  0.52686  Biso   1.000  C
  C54      1.0000 0.03826  0.52686  0.52686  Biso   1.000  C
  C55      1.0000 0.52686  0.03826  0.90802  Biso   1.000  C
  C56      1.0000 0.52686  0.90802  0.03826  Biso   1.000  C
  C57      1.0000 0.38849  0.38849  0.11151  Biso   1.000  C
  C58      1.0000 0.44624  0.44624  0.05376  Biso   1.000  C
  C59      1.0000 0.11151  0.11151  0.38849  Biso   1.000  C
  C60      1.0000 0.05376  0.05376  0.44624  Biso   1.000  C
  C61      1.0000 0.38849  0.11151  0.11151  Biso   1.000  C
  C62      1.0000 0.44624  0.05376  0.05376  Biso   1.000  C
  C63      1.0000 0.11151  0.38849  0.38849  Biso   1.000  C
  C64      1.0000 0.05376  0.44624  0.44624  Biso   1.000  C
  C65      1.0000 0.38849  0.11151  0.38849  Biso   1.000  C
  C66      1.0000 0.44624  0.05376  0.44624  Biso   1.000  C
  C67      1.0000 0.11151  0.38849  0.11151  Biso   1.000  C
  C68      1.0000 0.05376  0.44624  0.05376  Biso   1.000  C
  C69      1.0000 0.61151  0.61151  0.88849  Biso   1.000  C
  C70      1.0000 0.55376  0.55376  0.94624  Biso   1.000  C
  C71      1.0000 0.88849  0.88849  0.61151  Biso   1.000  C
  C72      1.0000 0.94624  0.94624  0.55376  Biso   1.000  C
  C73      1.0000 0.88849  0.61151  0.88849  Biso   1.000  C
  C74      1.0000 0.94624  0.55376  0.94624  Biso   1.000  C
  C75      1.0000 0.61151  0.88849  0.61151  Biso   1.000  C
  C76      1.0000 0.55376  0.94624  0.55376  Biso   1.000  C
  C77      1.0000 0.88849  0.61151  0.61151  Biso   1.000  C
  C78      1.0000 0.94624  0.55376  0.55376  Biso   1.000  C
  C79      1.0000 0.61151  0.88849  0.88849  Biso   1.000  C
  C80      1.0000 0.55376  0.94624  0.94624  Biso   1.000  C
  C81      1.0000 0.25000  0.25000  0.25000  Biso   1.000  C
  C82      1.0000 0.75000  0.75000  0.75000  Biso   1.000  C
  C83      1.0000 0.36620  0.36620  0.07286  Biso   1.000  C
  C84      1.0000 0.36620  0.36620  0.19474  Biso   1.000  C
  C85      1.0000 0.07286  0.19474  0.36620  Biso   1.000  C
  C86      1.0000 0.19474  0.07286  0.36620  Biso   1.000  C
  C87      1.0000 0.36620  0.07286  0.19474  Biso   1.000  C
  C88      1.0000 0.36620  0.19474  0.07286  Biso   1.000  C
  C89      1.0000 0.07286  0.36620  0.36620  Biso   1.000  C
  C90      1.0000 0.19474  0.36620  0.36620  Biso   1.000  C
  C91      1.0000 0.36620  0.19474  0.36620  Biso   1.000  C
  C92      1.0000 0.36620  0.07286  0.36620  Biso   1.000  C
  C93      1.0000 0.07286  0.36620  0.19474  Biso   1.000  C
  C94      1.0000 0.19474  0.36620  0.07286  Biso   1.000  C
  C95      1.0000 0.63380  0.63380  0.92714  Biso   1.000  C
  C96      1.0000 0.63380  0.63380  0.80526  Biso   1.000  C
  C97      1.0000 0.80526  0.92714  0.63380  Biso   1.000  C
  C98      1.0000 0.92714  0.80526  0.63380  Biso   1.000  C
  C99      1.0000 0.92714  0.63380  0.80526  Biso   1.000  C
  C100     1.0000 0.80526  0.63380  0.92714  Biso   1.000  C
  C101     1.0000 0.63380  0.92714  0.63380  Biso   1.000  C
  C102     1.0000 0.63380  0.80526  0.63380  Biso   1.000  C
  C103     1.0000 0.80526  0.63380  0.63380  Biso   1.000  C
  C104     1.0000 0.92714  0.63380  0.63380  Biso   1.000  C
  C105     1.0000 0.63380  0.92714  0.80526  Biso   1.000  C
  C106     1.0000 0.63380  0.80526  0.92714  Biso   1.000  C
  O1       1.0000 0.00550  0.83927  0.13393  Biso   1.000  O
  O2       1.0000 0.00550  0.01463  0.13393  Biso   1.000  O
  O3       1.0000 0.83014  0.01463  0.13393  Biso   1.000  O
  O4       1.0000 0.00550  0.01463  0.95857  Biso   1.000  O
  O5       1.0000 0.41918  0.42650  0.54580  Biso   1.000  O
  O6       1.0000 0.41918  0.60186  0.54580  Biso   1.000  O
  O7       1.0000 0.59454  0.42650  0.54580  Biso   1.000  O
  O8       1.0000 0.41918  0.42650  0.72116  Biso   1.000  O
  O9       1.0000 0.87268  0.65761  0.29118  Biso   1.000  O
  O10      1.0000 0.16274  0.17188  0.00111  Biso   1.000  O
  O11      1.0000 0.64848  0.88181  0.29118  Biso   1.000  O
  O12      1.0000 0.16274  0.17188  0.77691  Biso   1.000  O
  O13      1.0000 0.64848  0.17188  0.00111  Biso   1.000  O
  O14      1.0000 0.16274  0.88181  0.29118  Biso   1.000  O
  O15      1.0000 0.87268  0.17188  0.77691  Biso   1.000  O
  O16      1.0000 0.16274  0.65761  0.29118  Biso   1.000  O
  O17      1.0000 0.16274  0.88181  0.77691  Biso   1.000  O
  O18      1.0000 0.87268  0.17188  0.29118  Biso   1.000  O
  O19      1.0000 0.16274  0.65761  0.00111  Biso   1.000  O
  O20      1.0000 0.64848  0.17188  0.29118  Biso   1.000  O
  O21      1.0000 0.55200  0.26926  0.38856  Biso   1.000  O
  O22      1.0000 0.26194  0.78352  0.67862  Biso   1.000  O
  O23      1.0000 0.77621  0.26926  0.38856  Biso   1.000  O
  O24      1.0000 0.26194  0.55932  0.90282  Biso   1.000  O
  O25      1.0000 0.77621  0.26926  0.67862  Biso   1.000  O
  O26      1.0000 0.26194  0.78352  0.38856  Biso   1.000  O
  O27      1.0000 0.55200  0.26926  0.90282  Biso   1.000  O
  O28      1.0000 0.26194  0.55932  0.38856  Biso   1.000  O
  O29      1.0000 0.26194  0.26926  0.90282  Biso   1.000  O
  O30      1.0000 0.55200  0.78352  0.38856  Biso   1.000  O
  O31      1.0000 0.26194  0.26926  0.67862  Biso   1.000  O
  O32      1.0000 0.77621  0.55932  0.38856  Biso   1.000  O
  O33      1.0000 0.80342  0.68083  0.31420  Biso   1.000  O
  O34      1.0000 0.18576  0.19490  0.93185  Biso   1.000  O
  O35      1.0000 0.67170  0.81255  0.31420  Biso   1.000  O
  O36      1.0000 0.18576  0.19490  0.80013  Biso   1.000  O
  O37      1.0000 0.67170  0.19490  0.93185  Biso   1.000  O
  O38      1.0000 0.18576  0.81255  0.31420  Biso   1.000  O
  O39      1.0000 0.80342  0.19490  0.80013  Biso   1.000  O
  O40      1.0000 0.18576  0.68083  0.31420  Biso   1.000  O
  O41      1.0000 0.18576  0.81255  0.80013  Biso   1.000  O
  O42      1.0000 0.80342  0.19490  0.31420  Biso   1.000  O
  O43      1.0000 0.18576  0.68083  0.93185  Biso   1.000  O
  O44      1.0000 0.67170  0.19490  0.31420  Biso   1.000  O
  O45      1.0000 0.62127  0.24624  0.36554  Biso   1.000  O
  O46      1.0000 0.23892  0.76030  0.74788  Biso   1.000  O
  O47      1.0000 0.75299  0.24624  0.36554  Biso   1.000  O
  O48      1.0000 0.23892  0.62858  0.87960  Biso   1.000  O
  O49      1.0000 0.75299  0.24624  0.74788  Biso   1.000  O
  O50      1.0000 0.23892  0.76030  0.36554  Biso   1.000  O
  O51      1.0000 0.62127  0.24624  0.87960  Biso   1.000  O
  O52      1.0000 0.23892  0.62858  0.36554  Biso   1.000  O
  O53      1.0000 0.23892  0.24624  0.87960  Biso   1.000  O
  O54      1.0000 0.62127  0.76030  0.36554  Biso   1.000  O
  O55      1.0000 0.23892  0.24624  0.74788  Biso   1.000  O
  O56      1.0000 0.75299  0.62858  0.36554  Biso   1.000  O
  O57      1.0000 0.82003  0.82916  0.23172  Biso   1.000  O
  O58      1.0000 0.76648  0.77562  0.28527  Biso   1.000  O
  O59      1.0000 0.10329  0.11242  0.94847  Biso   1.000  O
  O60      1.0000 0.15684  0.16597  0.89492  Biso   1.000  O
  O61      1.0000 0.82003  0.11242  0.94847  Biso   1.000  O
  O62      1.0000 0.76648  0.16597  0.89492  Biso   1.000  O
  O63      1.0000 0.10329  0.82916  0.23172  Biso   1.000  O
  O64      1.0000 0.15684  0.77562  0.28527  Biso   1.000  O
  O65      1.0000 0.10329  0.82916  0.94847  Biso   1.000  O
  O66      1.0000 0.15684  0.77562  0.89492  Biso   1.000  O
  O67      1.0000 0.82003  0.11242  0.23172  Biso   1.000  O
  O68      1.0000 0.76648  0.16597  0.28527  Biso   1.000  O
  O69      1.0000 0.60465  0.32871  0.44801  Biso   1.000  O
  O70      1.0000 0.65820  0.27516  0.39446  Biso   1.000  O
  O71      1.0000 0.32139  0.61197  0.73127  Biso   1.000  O
  O72      1.0000 0.26785  0.66552  0.78482  Biso   1.000  O
  O73      1.0000 0.60465  0.32871  0.73127  Biso   1.000  O
  O74      1.0000 0.65820  0.27516  0.78482  Biso   1.000  O
  O75      1.0000 0.32139  0.61197  0.44801  Biso   1.000  O
  O76      1.0000 0.26785  0.66552  0.39446  Biso   1.000  O
  O77      1.0000 0.32139  0.32871  0.73127  Biso   1.000  O
  O78      1.0000 0.26785  0.27516  0.78482  Biso   1.000  O
  O79      1.0000 0.60465  0.61197  0.44801  Biso   1.000  O
  O80      1.0000 0.65820  0.66552  0.39446  Biso   1.000  O
  O81      1.0000 0.96166  0.97079  0.09009  Biso   1.000  O
  O82      1.0000 0.46302  0.47034  0.58964  Biso   1.000  O
  O83      1.0000 0.90671  0.79333  0.20630  Biso   1.000  O
  O84      1.0000 0.07787  0.08700  0.03514  Biso   1.000  O
  O85      1.0000 0.78420  0.91584  0.20630  Biso   1.000  O
  O86      1.0000 0.07787  0.08700  0.91263  Biso   1.000  O
  O87      1.0000 0.78420  0.08700  0.03514  Biso   1.000  O
  O88      1.0000 0.07787  0.91584  0.20630  Biso   1.000  O
  O89      1.0000 0.90671  0.08700  0.91263  Biso   1.000  O
  O90      1.0000 0.07787  0.79333  0.20630  Biso   1.000  O
  O91      1.0000 0.07787  0.91584  0.91263  Biso   1.000  O
  O92      1.0000 0.90671  0.08700  0.20630  Biso   1.000  O
  O93      1.0000 0.07787  0.79333  0.03514  Biso   1.000  O
  O94      1.0000 0.78420  0.08700  0.20630  Biso   1.000  O
  O95      1.0000 0.51797  0.35413  0.47343  Biso   1.000  O
  O96      1.0000 0.34682  0.64780  0.64459  Biso   1.000  O
  O97      1.0000 0.64048  0.35413  0.47343  Biso   1.000  O
  O98      1.0000 0.34682  0.52529  0.76710  Biso   1.000  O
  O99      1.0000 0.64048  0.35413  0.64459  Biso   1.000  O
  O100     1.0000 0.34682  0.64780  0.47343  Biso   1.000  O
  O101     1.0000 0.51797  0.35413  0.76710  Biso   1.000  O
  O102     1.0000 0.34682  0.52529  0.47343  Biso   1.000  O
  O103     1.0000 0.34682  0.35413  0.76710  Biso   1.000  O
  O104     1.0000 0.51797  0.64780  0.47343  Biso   1.000  O
  O105     1.0000 0.34682  0.35413  0.64459  Biso   1.000  O
