data_image0
_cell_length_a       18.2344
_cell_length_b       18.2344
_cell_length_c       18.2344
_cell_angle_alpha    60
_cell_angle_beta     60
_cell_angle_gamma    60

_symmetry_space_group_name_H-M    "P 1"
_symmetry_int_tables_number       1

loop_
  _symmetry_equiv_pos_as_xyz
  'x, y, z'

loop_
  _atom_site_label
  _atom_site_occupancy
  _atom_site_fract_x
  _atom_site_fract_y
  _atom_site_fract_z
  _atom_site_thermal_displace_type
  _atom_site_B_iso_or_equiv
  _atom_site_type_symbol
  C1       1.0000 0.29357  0.29359  0.11925  Biso   1.000  C
  C2       1.0000 0.29358  0.29358  0.29359  Biso   1.000  C
  C3       1.0000 0.11924  0.29359  0.29358  Biso   1.000  C
  C4       1.0000 0.29358  0.11925  0.29359  Biso   1.000  C
  C5       1.0000 0.70642  0.70642  0.88075  Biso   1.000  C
  C6       1.0000 0.70641  0.70642  0.70642  Biso   1.000  C
  C7       1.0000 0.70642  0.88075  0.70642  Biso   1.000  C
  C8       1.0000 0.88075  0.70642  0.70641  Biso   1.000  C
  C9       1.0000 0.45590  0.45590  0.93650  Biso   1.000  C
  C10      1.0000 0.45590  0.45590  0.15170  Biso   1.000  C
  C11      1.0000 0.93650  0.15170  0.45590  Biso   1.000  C
  C12      1.0000 0.15170  0.93650  0.45590  Biso   1.000  C
  C13      1.0000 0.45590  0.93650  0.15170  Biso   1.000  C
  C14      1.0000 0.45590  0.15170  0.93650  Biso   1.000  C
  C15      1.0000 0.93650  0.45590  0.45590  Biso   1.000  C
  C16      1.0000 0.15170  0.45590  0.45590  Biso   1.000  C
  C17      1.0000 0.45590  0.15170  0.45590  Biso   1.000  C
  C18      1.0000 0.45590  0.93650  0.45590  Biso   1.000  C
  C19      1.0000 0.93650  0.45590  0.15170  Biso   1.000  C
  C20      1.0000 0.15170  0.45590  0.93650  Biso   1.000  C
  C21      1.0000 0.54410  0.54410  0.06350  Biso   1.000  C
  C22      1.0000 0.54410  0.54410  0.84830  Biso   1.000  C
  C23      1.0000 0.84830  0.06350  0.54410  Biso   1.000  C
  C24      1.0000 0.06350  0.84830  0.54410  Biso   1.000  C
  C25      1.0000 0.06350  0.54410  0.84830  Biso   1.000  C
  C26      1.0000 0.84830  0.54410  0.06350  Biso   1.000  C
  C27      1.0000 0.54410  0.06350  0.54410  Biso   1.000  C
  C28      1.0000 0.54410  0.84830  0.54410  Biso   1.000  C
  C29      1.0000 0.84830  0.54410  0.54410  Biso   1.000  C
  C30      1.0000 0.06350  0.54410  0.54410  Biso   1.000  C
  C31      1.0000 0.54410  0.06350  0.84830  Biso   1.000  C
  C32      1.0000 0.54410  0.84830  0.06350  Biso   1.000  C
  C33      1.0000 0.47360  0.47360  0.96326  Biso   1.000  C
  C34      1.0000 0.47360  0.47360  0.08954  Biso   1.000  C
  C35      1.0000 0.96326  0.08954  0.47360  Biso   1.000  C
  C36      1.0000 0.08954  0.96326  0.47360  Biso   1.000  C
  C37      1.0000 0.47360  0.96326  0.08954  Biso   1.000  C
  C38      1.0000 0.47360  0.08954  0.96326  Biso   1.000  C
  C39      1.0000 0.96326  0.47360  0.47360  Biso   1.000  C
  C40      1.0000 0.08954  0.47360  0.47360  Biso   1.000  C
  C41      1.0000 0.47360  0.08954  0.47360  Biso   1.000  C
  C42      1.0000 0.47360  0.96326  0.47360  Biso   1.000  C
  C43      1.0000 0.96326  0.47360  0.08954  Biso   1.000  C
  C44      1.0000 0.08954  0.47360  0.96326  Biso   1.000  C
  C45      1.0000 0.52640  0.52640  0.03674  Biso   1.000  C
  C46      1.0000 0.52640  0.52640  0.91046  Biso   1.000  C
  C47      1.0000 0.91046  0.03674  0.52640  Biso   1.000  C
  C48      1.0000 0.03674  0.91046  0.52640  Biso   1.000  C
  C49      1.0000 0.03674  0.52640  0.91046  Biso   1.000  C
  C50      1.0000 0.91046  0.52640  0.03674  Biso   1.000  C
  C51      1.0000 0.52640  0.03674  0.52640  Biso   1.000  C
  C52      1.0000 0.52640  0.91046  0.52640  Biso   1.000  C
  C53      1.0000 0.91046  0.52640  0.52640  Biso   1.000  C
  C54      1.0000 0.03674  0.52640  0.52640  Biso   1.000  C
  C55      1.0000 0.52640  0.03674  0.91046  Biso   1.000  C
  C56      1.0000 0.52640  0.91046  0.03674  Biso   1.000  C
  C57      1.0000 0.38860  0.38860  0.11140  Biso   1.000  C
  C58      1.0000 0.44640  0.44640  0.05360  Biso   1.000  C
  C59      1.0000 0.11140  0.11140  0.38860  Biso   1.000  C
  C60      1.0000 0.05360  0.05360  0.44640  Biso   1.000  C
  C61      1.0000 0.38860  0.11140  0.11140  Biso   1.000  C
  C62      1.0000 0.44640  0.05360  0.05360  Biso   1.000  C
  C63      1.0000 0.11140  0.38860  0.38860  Biso   1.000  C
  C64      1.0000 0.05360  0.44640  0.44640  Biso   1.000  C
  C65      1.0000 0.38860  0.11140  0.38860  Biso   1.000  C
  C66      1.0000 0.44640  0.05360  0.44640  Biso   1.000  C
  C67      1.0000 0.11140  0.38860  0.11140  Biso   1.000  C
  C68      1.0000 0.05360  0.44640  0.05360  Biso   1.000  C
  C69      1.0000 0.61140  0.61140  0.88860  Biso   1.000  C
  C70      1.0000 0.55360  0.55360  0.94640  Biso   1.000  C
  C71      1.0000 0.88860  0.88860  0.61140  Biso   1.000  C
  C72      1.0000 0.94640  0.94640  0.55360  Biso   1.000  C
  C73      1.0000 0.88860  0.61140  0.88860  Biso   1.000  C
  C74      1.0000 0.94640  0.55360  0.94640  Biso   1.000  C
  C75      1.0000 0.61140  0.88860  0.61140  Biso   1.000  C
  C76      1.0000 0.55360  0.94640  0.55360  Biso   1.000  C
  C77      1.0000 0.88860  0.61140  0.61140  Biso   1.000  C
  C78      1.0000 0.94640  0.55360  0.55360  Biso   1.000  C
  C79      1.0000 0.61140  0.88860  0.88860  Biso   1.000  C
  C80      1.0000 0.55360  0.94640  0.94640  Biso   1.000  C
  C81      1.0000 0.25000  0.25000  0.25000  Biso   1.000  C
  C82      1.0000 0.75000  0.75000  0.75000  Biso   1.000  C
  C83      1.0000 0.36604  0.36604  0.07340  Biso   1.000  C
  C84      1.0000 0.36604  0.36604  0.19452  Biso   1.000  C
  C85      1.0000 0.07340  0.19452  0.36604  Biso   1.000  C
  C86      1.0000 0.19452  0.07340  0.36604  Biso   1.000  C
  C87      1.0000 0.36604  0.07340  0.19452  Biso   1.000  C
  C88      1.0000 0.36604  0.19452  0.07340  Biso   1.000  C
  C89      1.0000 0.07340  0.36604  0.36604  Biso   1.000  C
  C90      1.0000 0.19452  0.36604  0.36604  Biso   1.000  C
  C91      1.0000 0.36604  0.19452  0.36604  Biso   1.000  C
  C92      1.0000 0.36604  0.07340  0.36604  Biso   1.000  C
  C93      1.0000 0.07340  0.36604  0.19452  Biso   1.000  C
  C94      1.0000 0.19452  0.36604  0.07340  Biso   1.000  C
  C95      1.0000 0.63396  0.63396  0.92660  Biso   1.000  C
  C96      1.0000 0.63396  0.63396  0.80548  Biso   1.000  C
  C97      1.0000 0.80548  0.92660  0.63396  Biso   1.000  C
  C98      1.0000 0.92660  0.80548  0.63396  Biso   1.000  C
  C99      1.0000 0.92660  0.63396  0.80548  Biso   1.000  C
  C100     1.0000 0.80548  0.63396  0.92660  Biso   1.000  C
  C101     1.0000 0.63396  0.92660  0.63396  Biso   1.000  C
  C102     1.0000 0.63396  0.80548  0.63396  Biso   1.000  C
  C103     1.0000 0.80548  0.63396  0.63396  Biso   1.000  C
  C104     1.0000 0.92660  0.63396  0.63396  Biso   1.000  C
  C105     1.0000 0.63396  0.92660  0.80548  Biso   1.000  C
  C106     1.0000 0.63396  0.80548  0.92660  Biso   1.000  C
  O1       1.0000 0.16452  0.00000  0.00000  Biso   1.000  O
  O2       1.0000 0.57613  0.58826  0.41188  Biso   1.000  O
  O3       1.0000 0.57613  0.41321  0.41188  Biso   1.000  O
  O4       1.0000 0.16452  0.82495  0.00000  Biso   1.000  O
  O5       1.0000 0.16407  0.00034  0.82473  Biso   1.000  O
  O6       1.0000 0.98908  0.00015  0.00010  Biso   1.000  O
  O7       1.0000 0.57659  0.41287  0.58715  Biso   1.000  O
  O8       1.0000 0.75158  0.41306  0.41178  Biso   1.000  O
  O9       1.0000 0.32682  0.64612  0.85629  Biso   1.000  O
  O10      1.0000 0.32146  0.86017  0.64438  Biso   1.000  O
  O11      1.0000 0.02264  0.64721  0.16030  Biso   1.000  O
  O12      1.0000 0.80589  0.85764  0.16261  Biso   1.000  O
  O13      1.0000 0.32763  0.85965  0.15780  Biso   1.000  O
  O14      1.0000 0.41384  0.25296  0.55559  Biso   1.000  O
  O15      1.0000 0.41920  0.24974  0.76750  Biso   1.000  O
  O16      1.0000 0.71802  0.25387  0.25158  Biso   1.000  O
  O17      1.0000 0.93477  0.24987  0.24928  Biso   1.000  O
  O18      1.0000 0.41302  0.76881  0.25408  Biso   1.000  O
  O19      1.0000 0.41384  0.76709  0.55559  Biso   1.000  O
  O20      1.0000 0.41920  0.55304  0.76750  Biso   1.000  O
  O21      1.0000 0.71802  0.76600  0.25158  Biso   1.000  O
  O22      1.0000 0.93477  0.55556  0.24928  Biso   1.000  O
  O23      1.0000 0.41303  0.55356  0.25408  Biso   1.000  O
  O24      1.0000 0.32681  0.16025  0.85629  Biso   1.000  O
  O25      1.0000 0.32146  0.16347  0.64438  Biso   1.000  O
  O26      1.0000 0.02264  0.15934  0.16030  Biso   1.000  O
  O27      1.0000 0.80589  0.16334  0.16261  Biso   1.000  O
  O28      1.0000 0.32763  0.64440  0.15780  Biso   1.000  O
  O29      1.0000 0.80678  0.16215  0.85840  Biso   1.000  O
  O30      1.0000 0.02087  0.16327  0.64208  Biso   1.000  O
  O31      1.0000 0.93388  0.25106  0.55349  Biso   1.000  O
  O32      1.0000 0.71979  0.24994  0.76981  Biso   1.000  O
  O33      1.0000 0.25891  0.81642  0.81986  Biso   1.000  O
  O34      1.0000 0.31856  0.75827  0.75859  Biso   1.000  O
  O35      1.0000 0.34463  0.67185  0.79403  Biso   1.000  O
  O36      1.0000 0.34088  0.79801  0.67040  Biso   1.000  O
  O37      1.0000 0.97955  0.81961  0.09724  Biso   1.000  O
  O38      1.0000 0.92540  0.76105  0.15260  Biso   1.000  O
  O39      1.0000 0.96038  0.67343  0.17832  Biso   1.000  O
  O40      1.0000 0.83361  0.79558  0.18012  Biso   1.000  O
  O41      1.0000 0.34354  0.79749  0.17792  Biso   1.000  O
  O42      1.0000 0.48175  0.31892  0.59202  Biso   1.000  O
  O43      1.0000 0.42210  0.25916  0.65329  Biso   1.000  O
  O44      1.0000 0.39603  0.23424  0.61785  Biso   1.000  O
  O45      1.0000 0.39978  0.23303  0.74148  Biso   1.000  O
  O46      1.0000 0.76111  0.32013  0.31464  Biso   1.000  O
  O47      1.0000 0.81525  0.26278  0.25929  Biso   1.000  O
  O48      1.0000 0.78028  0.23586  0.23356  Biso   1.000  O
  O49      1.0000 0.90704  0.23305  0.23176  Biso   1.000  O
  O50      1.0000 0.39711  0.74268  0.23396  Biso   1.000  O
  O51      1.0000 0.48175  0.59679  0.59202  Biso   1.000  O
  O52      1.0000 0.42210  0.65494  0.65329  Biso   1.000  O
  O53      1.0000 0.39603  0.74136  0.61785  Biso   1.000  O
  O54      1.0000 0.39978  0.61520  0.74148  Biso   1.000  O
  O55      1.0000 0.76111  0.59360  0.31464  Biso   1.000  O
  O56      1.0000 0.81526  0.65216  0.25929  Biso   1.000  O
  O57      1.0000 0.78028  0.73978  0.23356  Biso   1.000  O
  O58      1.0000 0.90704  0.61763  0.23176  Biso   1.000  O
  O59      1.0000 0.39711  0.61572  0.23396  Biso   1.000  O
  O60      1.0000 0.25891  0.09429  0.81986  Biso   1.000  O
  O61      1.0000 0.31856  0.15405  0.75859  Biso   1.000  O
  O62      1.0000 0.34463  0.17897  0.79403  Biso   1.000  O
  O63      1.0000 0.34088  0.18018  0.67040  Biso   1.000  O
  O64      1.0000 0.97955  0.09307  0.09724  Biso   1.000  O
  O65      1.0000 0.92540  0.15043  0.15260  Biso   1.000  O
  O66      1.0000 0.96038  0.17735  0.17832  Biso   1.000  O
  O67      1.0000 0.83362  0.18015  0.18012  Biso   1.000  O
  O68      1.0000 0.34355  0.67053  0.17792  Biso   1.000  O
  O69      1.0000 0.98624  0.09509  0.81305  Biso   1.000  O
  O70      1.0000 0.92398  0.15235  0.76080  Biso   1.000  O
  O71      1.0000 0.83400  0.17957  0.79633  Biso   1.000  O
  O72      1.0000 0.95871  0.18078  0.66920  Biso   1.000  O
  O73      1.0000 0.25742  0.82141  0.08923  Biso   1.000  O
  O74      1.0000 0.31748  0.75965  0.15270  Biso   1.000  O
  O75      1.0000 0.75441  0.31812  0.59883  Biso   1.000  O
  O76      1.0000 0.81667  0.26086  0.65108  Biso   1.000  O
  O77      1.0000 0.90666  0.23364  0.61555  Biso   1.000  O
  O78      1.0000 0.78195  0.23243  0.74268  Biso   1.000  O
  O79      1.0000 0.48324  0.59180  0.32265  Biso   1.000  O
  O80      1.0000 0.42318  0.65356  0.25919  Biso   1.000  O
  O81      1.0000 0.23878  0.90191  0.77391  Biso   1.000  O
  O82      1.0000 0.24009  0.77248  0.90414  Biso   1.000  O
  O83      1.0000 0.93961  0.90289  0.07071  Biso   1.000  O
  O84      1.0000 0.06593  0.77547  0.07472  Biso   1.000  O
  O85      1.0000 0.23830  0.90389  0.07191  Biso   1.000  O
  O86      1.0000 0.50187  0.33833  0.63797  Biso   1.000  O
  O87      1.0000 0.50057  0.34044  0.50774  Biso   1.000  O
  O88      1.0000 0.80104  0.33695  0.34117  Biso   1.000  O
  O89      1.0000 0.67472  0.33985  0.33716  Biso   1.000  O
  O90      1.0000 0.50236  0.63784  0.33997  Biso   1.000  O
  O91      1.0000 0.50187  0.51130  0.63797  Biso   1.000  O
  O92      1.0000 0.50057  0.64073  0.50774  Biso   1.000  O
  O93      1.0000 0.80105  0.51032  0.34117  Biso   1.000  O
  O94      1.0000 0.67473  0.63774  0.33716  Biso   1.000  O
  O95      1.0000 0.50236  0.50932  0.33997  Biso   1.000  O
  O96      1.0000 0.23878  0.07487  0.77391  Biso   1.000  O
  O97      1.0000 0.24009  0.07277  0.90414  Biso   1.000  O
  O98      1.0000 0.93961  0.07626  0.07071  Biso   1.000  O
  O99      1.0000 0.06593  0.07336  0.07472  Biso   1.000  O
  O100     1.0000 0.23830  0.77537  0.07191  Biso   1.000  O
  O101     1.0000 0.12128  0.95615  0.95590  Biso   1.000  O
  O102     1.0000 0.06712  0.07387  0.77461  Biso   1.000  O
  O103     1.0000 0.94101  0.07617  0.89613  Biso   1.000  O
  O104     1.0000 0.61938  0.45706  0.45599  Biso   1.000  O
  O105     1.0000 0.67354  0.33934  0.63727  Biso   1.000  O
