data_image0
_cell_length_a       18.2751
_cell_length_b       18.2751
_cell_length_c       18.2751
_cell_angle_alpha    60
_cell_angle_beta     60
_cell_angle_gamma    60

_symmetry_space_group_name_H-M    "P 1"
_symmetry_int_tables_number       1

loop_
  _symmetry_equiv_pos_as_xyz
  'x, y, z'

loop_
  _atom_site_label
  _atom_site_occupancy
  _atom_site_fract_x
  _atom_site_fract_y
  _atom_site_fract_z
  _atom_site_thermal_displace_type
  _atom_site_B_iso_or_equiv
  _atom_site_type_symbol
  Zn1      1.0000 0.29350  0.29349  0.11952  Biso   1.000  Zn
  Zn2      1.0000 0.29350  0.29349  0.29349  Biso   1.000  Zn
  Zn3      1.0000 0.11953  0.29349  0.29349  Biso   1.000  Zn
  Zn4      1.0000 0.29350  0.11952  0.29349  Biso   1.000  Zn
  Zn5      1.0000 0.70650  0.70651  0.88048  Biso   1.000  Zn
  Zn6      1.0000 0.70650  0.70651  0.70651  Biso   1.000  Zn
  Zn7      1.0000 0.70650  0.88048  0.70651  Biso   1.000  Zn
  Zn8      1.0000 0.88047  0.70651  0.70651  Biso   1.000  Zn
  H1       1.0000 0.45530  0.45530  0.93570  Biso   1.000  H
  H2       1.0000 0.45530  0.45530  0.15370  Biso   1.000  H
  H3       1.0000 0.93570  0.15370  0.45530  Biso   1.000  H
  H4       1.0000 0.15370  0.93570  0.45530  Biso   1.000  H
  H5       1.0000 0.45530  0.93570  0.15370  Biso   1.000  H
  H6       1.0000 0.45530  0.15370  0.93570  Biso   1.000  H
  H7       1.0000 0.93570  0.45530  0.45530  Biso   1.000  H
  H8       1.0000 0.15370  0.45530  0.45530  Biso   1.000  H
  H9       1.0000 0.45530  0.15370  0.45530  Biso   1.000  H
  H10      1.0000 0.45530  0.93570  0.45530  Biso   1.000  H
  H11      1.0000 0.93570  0.45530  0.15370  Biso   1.000  H
  H12      1.0000 0.15370  0.45530  0.93570  Biso   1.000  H
  H13      1.0000 0.54470  0.54470  0.06430  Biso   1.000  H
  H14      1.0000 0.54470  0.54470  0.84630  Biso   1.000  H
  H15      1.0000 0.84630  0.06430  0.54470  Biso   1.000  H
  H16      1.0000 0.06430  0.84630  0.54470  Biso   1.000  H
  H17      1.0000 0.06430  0.54470  0.84630  Biso   1.000  H
  H18      1.0000 0.84630  0.54470  0.06430  Biso   1.000  H
  H19      1.0000 0.54470  0.06430  0.54470  Biso   1.000  H
  H20      1.0000 0.54470  0.84630  0.54470  Biso   1.000  H
  H21      1.0000 0.84630  0.54470  0.54470  Biso   1.000  H
  H22      1.0000 0.06430  0.54470  0.54470  Biso   1.000  H
  H23      1.0000 0.54470  0.06430  0.84630  Biso   1.000  H
  H24      1.0000 0.54470  0.84630  0.06430  Biso   1.000  H
  C1       1.0000 0.47331  0.47331  0.96231  Biso   1.000  C
  C2       1.0000 0.47331  0.47331  0.09107  Biso   1.000  C
  C3       1.0000 0.96231  0.09107  0.47331  Biso   1.000  C
  C4       1.0000 0.09107  0.96231  0.47331  Biso   1.000  C
  C5       1.0000 0.47331  0.96231  0.09107  Biso   1.000  C
  C6       1.0000 0.47331  0.09107  0.96231  Biso   1.000  C
  C7       1.0000 0.96231  0.47331  0.47331  Biso   1.000  C
  C8       1.0000 0.09107  0.47331  0.47331  Biso   1.000  C
  C9       1.0000 0.47331  0.09107  0.47331  Biso   1.000  C
  C10      1.0000 0.47331  0.96231  0.47331  Biso   1.000  C
  C11      1.0000 0.96231  0.47331  0.09107  Biso   1.000  C
  C12      1.0000 0.09107  0.47331  0.96231  Biso   1.000  C
  C13      1.0000 0.52669  0.52669  0.03769  Biso   1.000  C
  C14      1.0000 0.52669  0.52669  0.90893  Biso   1.000  C
  C15      1.0000 0.90893  0.03769  0.52669  Biso   1.000  C
  C16      1.0000 0.03769  0.90893  0.52669  Biso   1.000  C
  C17      1.0000 0.03769  0.52669  0.90893  Biso   1.000  C
  C18      1.0000 0.90893  0.52669  0.03769  Biso   1.000  C
  C19      1.0000 0.52669  0.03769  0.52669  Biso   1.000  C
  C20      1.0000 0.52669  0.90893  0.52669  Biso   1.000  C
  C21      1.0000 0.90893  0.52669  0.52669  Biso   1.000  C
  C22      1.0000 0.03769  0.52669  0.52669  Biso   1.000  C
  C23      1.0000 0.52669  0.03769  0.90893  Biso   1.000  C
  C24      1.0000 0.52669  0.90893  0.03769  Biso   1.000  C
  C25      1.0000 0.38853  0.38853  0.11147  Biso   1.000  C
  C26      1.0000 0.44625  0.44625  0.05375  Biso   1.000  C
  C27      1.0000 0.11147  0.11147  0.38853  Biso   1.000  C
  C28      1.0000 0.05375  0.05375  0.44625  Biso   1.000  C
  C29      1.0000 0.38853  0.11147  0.11147  Biso   1.000  C
  C30      1.0000 0.44625  0.05375  0.05375  Biso   1.000  C
  C31      1.0000 0.11147  0.38853  0.38853  Biso   1.000  C
  C32      1.0000 0.05375  0.44625  0.44625  Biso   1.000  C
  C33      1.0000 0.38853  0.11147  0.38853  Biso   1.000  C
  C34      1.0000 0.44625  0.05375  0.44625  Biso   1.000  C
  C35      1.0000 0.11147  0.38853  0.11147  Biso   1.000  C
  C36      1.0000 0.05375  0.44625  0.05375  Biso   1.000  C
  C37      1.0000 0.61147  0.61147  0.88853  Biso   1.000  C
  C38      1.0000 0.55375  0.55375  0.94625  Biso   1.000  C
  C39      1.0000 0.88853  0.88853  0.61147  Biso   1.000  C
  C40      1.0000 0.94625  0.94625  0.55375  Biso   1.000  C
  C41      1.0000 0.88853  0.61147  0.88853  Biso   1.000  C
  C42      1.0000 0.94625  0.55375  0.94625  Biso   1.000  C
  C43      1.0000 0.61147  0.88853  0.61147  Biso   1.000  C
  C44      1.0000 0.55375  0.94625  0.55375  Biso   1.000  C
  C45      1.0000 0.88853  0.61147  0.61147  Biso   1.000  C
  C46      1.0000 0.94625  0.55375  0.55375  Biso   1.000  C
  C47      1.0000 0.61147  0.88853  0.88853  Biso   1.000  C
  C48      1.0000 0.55375  0.94625  0.94625  Biso   1.000  C
  O1       1.0000 0.25000  0.25000  0.25000  Biso   1.000  O
  O2       1.0000 0.75000  0.75000  0.75000  Biso   1.000  O
  O3       1.0000 0.36609  0.36609  0.07299  Biso   1.000  O
  O4       1.0000 0.36609  0.36609  0.19483  Biso   1.000  O
  O5       1.0000 0.07299  0.19483  0.36609  Biso   1.000  O
  O6       1.0000 0.19483  0.07299  0.36609  Biso   1.000  O
  O7       1.0000 0.36609  0.07299  0.19483  Biso   1.000  O
  O8       1.0000 0.36609  0.19483  0.07299  Biso   1.000  O
  O9       1.0000 0.07299  0.36609  0.36609  Biso   1.000  O
  O10      1.0000 0.19483  0.36609  0.36609  Biso   1.000  O
  O11      1.0000 0.36609  0.19483  0.36609  Biso   1.000  O
  O12      1.0000 0.36609  0.07299  0.36609  Biso   1.000  O
  O13      1.0000 0.07299  0.36609  0.19483  Biso   1.000  O
  O14      1.0000 0.19483  0.36609  0.07299  Biso   1.000  O
  O15      1.0000 0.63391  0.63391  0.92701  Biso   1.000  O
  O16      1.0000 0.63391  0.63391  0.80517  Biso   1.000  O
  O17      1.0000 0.80517  0.92701  0.63391  Biso   1.000  O
  O18      1.0000 0.92701  0.80517  0.63391  Biso   1.000  O
  O19      1.0000 0.92701  0.63391  0.80517  Biso   1.000  O
  O20      1.0000 0.80517  0.63391  0.92701  Biso   1.000  O
  O21      1.0000 0.63391  0.92701  0.63391  Biso   1.000  O
  O22      1.0000 0.63391  0.80517  0.63391  Biso   1.000  O
  O23      1.0000 0.80517  0.63391  0.63391  Biso   1.000  O
  O24      1.0000 0.92701  0.63391  0.63391  Biso   1.000  O
  O25      1.0000 0.63391  0.92701  0.80517  Biso   1.000  O
  O26      1.0000 0.63391  0.80517  0.92701  Biso   1.000  O
  Zn9      1.0000 0.00550  0.83990  0.13403  Biso   1.000  Zn
  Zn10     1.0000 0.00550  0.01392  0.13403  Biso   1.000  Zn
  Zn11     1.0000 0.83148  0.01392  0.13403  Biso   1.000  Zn
  Zn12     1.0000 0.00550  0.01392  0.96001  Biso   1.000  Zn
  Zn13     1.0000 0.42135  0.42597  0.54608  Biso   1.000  Zn
  Zn14     1.0000 0.42135  0.59999  0.54608  Biso   1.000  Zn
  Zn15     1.0000 0.59537  0.42597  0.54608  Biso   1.000  Zn
  Zn16     1.0000 0.42135  0.42597  0.72010  Biso   1.000  Zn
  H25      1.0000 0.86772  0.65412  0.29582  Biso   1.000  H
  H26      1.0000 0.16729  0.17571  0.99625  Biso   1.000  H
  H27      1.0000 0.64570  0.87614  0.29582  Biso   1.000  H
  H28      1.0000 0.16729  0.17571  0.77423  Biso   1.000  H
  H29      1.0000 0.64570  0.17571  0.99625  Biso   1.000  H
  H30      1.0000 0.16729  0.87614  0.29582  Biso   1.000  H
  H31      1.0000 0.86772  0.17571  0.77423  Biso   1.000  H
  H32      1.0000 0.16729  0.65412  0.29582  Biso   1.000  H
  H33      1.0000 0.16729  0.87614  0.77423  Biso   1.000  H
  H34      1.0000 0.86772  0.17571  0.29582  Biso   1.000  H
  H35      1.0000 0.16729  0.65412  0.99625  Biso   1.000  H
  H36      1.0000 0.64570  0.17571  0.29582  Biso   1.000  H
  H37      1.0000 0.55913  0.26418  0.38429  Biso   1.000  H
  H38      1.0000 0.25956  0.78577  0.68386  Biso   1.000  H
  H39      1.0000 0.78115  0.26418  0.38429  Biso   1.000  H
  H40      1.0000 0.25956  0.56375  0.90588  Biso   1.000  H
  H41      1.0000 0.78115  0.26418  0.68386  Biso   1.000  H
  H42      1.0000 0.25956  0.78577  0.38429  Biso   1.000  H
  H43      1.0000 0.55913  0.26418  0.90588  Biso   1.000  H
  H44      1.0000 0.25956  0.56375  0.38429  Biso   1.000  H
  H45      1.0000 0.25956  0.26418  0.90588  Biso   1.000  H
  H46      1.0000 0.55913  0.78577  0.38429  Biso   1.000  H
  H47      1.0000 0.25956  0.26418  0.68386  Biso   1.000  H
  H48      1.0000 0.78115  0.56375  0.38429  Biso   1.000  H
  C49      1.0000 0.80439  0.68072  0.31419  Biso   1.000  C
  C50      1.0000 0.18566  0.19407  0.93292  Biso   1.000  C
  C51      1.0000 0.67230  0.81281  0.31419  Biso   1.000  C
  C52      1.0000 0.18566  0.19407  0.80083  Biso   1.000  C
  C53      1.0000 0.67230  0.19407  0.93292  Biso   1.000  C
  C54      1.0000 0.18566  0.81281  0.31419  Biso   1.000  C
  C55      1.0000 0.80439  0.19407  0.80083  Biso   1.000  C
  C56      1.0000 0.18566  0.68072  0.31419  Biso   1.000  C
  C57      1.0000 0.18566  0.81281  0.80083  Biso   1.000  C
  C58      1.0000 0.80439  0.19407  0.31419  Biso   1.000  C
  C59      1.0000 0.18566  0.68072  0.93292  Biso   1.000  C
  C60      1.0000 0.67230  0.19407  0.31419  Biso   1.000  C
  C61      1.0000 0.62246  0.24582  0.36593  Biso   1.000  C
  C62      1.0000 0.24120  0.75917  0.74719  Biso   1.000  C
  C63      1.0000 0.75455  0.24582  0.36593  Biso   1.000  C
  C64      1.0000 0.24120  0.62708  0.87928  Biso   1.000  C
  C65      1.0000 0.75455  0.24582  0.74719  Biso   1.000  C
  C66      1.0000 0.24120  0.75917  0.36593  Biso   1.000  C
  C67      1.0000 0.62246  0.24582  0.87928  Biso   1.000  C
  C68      1.0000 0.24120  0.62708  0.36593  Biso   1.000  C
  C69      1.0000 0.24120  0.24582  0.87928  Biso   1.000  C
  C70      1.0000 0.62246  0.75917  0.36593  Biso   1.000  C
  C71      1.0000 0.24120  0.24582  0.74719  Biso   1.000  C
  C72      1.0000 0.75455  0.62708  0.36593  Biso   1.000  C
  C73      1.0000 0.82328  0.83170  0.22925  Biso   1.000  C
  C74      1.0000 0.76536  0.77378  0.28717  Biso   1.000  C
  C75      1.0000 0.10073  0.10914  0.95181  Biso   1.000  C
  C76      1.0000 0.15864  0.16706  0.89389  Biso   1.000  C
  C77      1.0000 0.82328  0.10914  0.95181  Biso   1.000  C
  C78      1.0000 0.76536  0.16706  0.89389  Biso   1.000  C
  C79      1.0000 0.10073  0.83170  0.22925  Biso   1.000  C
  C80      1.0000 0.15865  0.77378  0.28717  Biso   1.000  C
  C81      1.0000 0.10073  0.83170  0.95181  Biso   1.000  C
  C82      1.0000 0.15864  0.77378  0.89389  Biso   1.000  C
  C83      1.0000 0.82328  0.10914  0.22925  Biso   1.000  C
  C84      1.0000 0.76536  0.16706  0.28717  Biso   1.000  C
  C85      1.0000 0.60357  0.33075  0.45086  Biso   1.000  C
  C86      1.0000 0.66149  0.27283  0.39294  Biso   1.000  C
  C87      1.0000 0.32613  0.60819  0.72831  Biso   1.000  C
  C88      1.0000 0.26821  0.66611  0.78623  Biso   1.000  C
  C89      1.0000 0.60357  0.33075  0.72831  Biso   1.000  C
  C90      1.0000 0.66149  0.27283  0.78623  Biso   1.000  C
  C91      1.0000 0.32613  0.60819  0.45086  Biso   1.000  C
  C92      1.0000 0.26821  0.66611  0.39294  Biso   1.000  C
  C93      1.0000 0.32613  0.33075  0.72831  Biso   1.000  C
  C94      1.0000 0.26821  0.27283  0.78623  Biso   1.000  C
  C95      1.0000 0.60357  0.60819  0.45086  Biso   1.000  C
  C96      1.0000 0.66149  0.66611  0.39294  Biso   1.000  C
  O27      1.0000 0.96200  0.97042  0.09053  Biso   1.000  O
  O28      1.0000 0.46485  0.46947  0.58958  Biso   1.000  O
  O29      1.0000 0.90700  0.79242  0.20703  Biso   1.000  O
  O30      1.0000 0.07850  0.08692  0.03553  Biso   1.000  O
  O31      1.0000 0.78400  0.91542  0.20703  Biso   1.000  O
  O32      1.0000 0.07850  0.08692  0.91253  Biso   1.000  O
  O33      1.0000 0.78400  0.08692  0.03553  Biso   1.000  O
  O34      1.0000 0.07850  0.91542  0.20703  Biso   1.000  O
  O35      1.0000 0.90700  0.08692  0.91253  Biso   1.000  O
  O36      1.0000 0.07850  0.79242  0.20703  Biso   1.000  O
  O37      1.0000 0.07850  0.91542  0.91253  Biso   1.000  O
  O38      1.0000 0.90700  0.08692  0.20703  Biso   1.000  O
  O39      1.0000 0.07850  0.79242  0.03553  Biso   1.000  O
  O40      1.0000 0.78400  0.08692  0.20703  Biso   1.000  O
  O41      1.0000 0.51985  0.35297  0.47308  Biso   1.000  O
  O42      1.0000 0.34835  0.64747  0.64459  Biso   1.000  O
  O43      1.0000 0.64285  0.35297  0.47308  Biso   1.000  O
  O44      1.0000 0.34835  0.52448  0.76758  Biso   1.000  O
  O45      1.0000 0.64285  0.35297  0.64459  Biso   1.000  O
  O46      1.0000 0.34835  0.64747  0.47308  Biso   1.000  O
  O47      1.0000 0.51985  0.35297  0.76758  Biso   1.000  O
  O48      1.0000 0.34835  0.52448  0.47308  Biso   1.000  O
  O49      1.0000 0.34835  0.35297  0.76758  Biso   1.000  O
  O50      1.0000 0.51985  0.64747  0.47308  Biso   1.000  O
  O51      1.0000 0.34835  0.35297  0.64459  Biso   1.000  O
