data_image0
_cell_length_a       18.2888
_cell_length_b       18.2888
_cell_length_c       18.2888
_cell_angle_alpha    60
_cell_angle_beta     60
_cell_angle_gamma    60

_symmetry_space_group_name_H-M    "P 1"
_symmetry_int_tables_number       1

loop_
  _symmetry_equiv_pos_as_xyz
  'x, y, z'

loop_
  _atom_site_label
  _atom_site_occupancy
  _atom_site_fract_x
  _atom_site_fract_y
  _atom_site_fract_z
  _atom_site_thermal_displace_type
  _atom_site_B_iso_or_equiv
  _atom_site_type_symbol
  C1       1.0000 0.29344  0.29345  0.11966  Biso   1.000  C
  C2       1.0000 0.29344  0.29345  0.29345  Biso   1.000  C
  C3       1.0000 0.11965  0.29345  0.29345  Biso   1.000  C
  C4       1.0000 0.29344  0.11966  0.29345  Biso   1.000  C
  C5       1.0000 0.70655  0.70656  0.88034  Biso   1.000  C
  C6       1.0000 0.70656  0.70655  0.70655  Biso   1.000  C
  C7       1.0000 0.70655  0.88034  0.70656  Biso   1.000  C
  C8       1.0000 0.88035  0.70655  0.70655  Biso   1.000  C
  C9       1.0000 0.45490  0.45490  0.93490  Biso   1.000  C
  C10      1.0000 0.45490  0.45490  0.15530  Biso   1.000  C
  C11      1.0000 0.93490  0.15530  0.45490  Biso   1.000  C
  C12      1.0000 0.15530  0.93490  0.45490  Biso   1.000  C
  C13      1.0000 0.45490  0.93490  0.15530  Biso   1.000  C
  C14      1.0000 0.45490  0.15530  0.93490  Biso   1.000  C
  C15      1.0000 0.93490  0.45490  0.45490  Biso   1.000  C
  C16      1.0000 0.15530  0.45490  0.45490  Biso   1.000  C
  C17      1.0000 0.45490  0.15530  0.45490  Biso   1.000  C
  C18      1.0000 0.45490  0.93490  0.45490  Biso   1.000  C
  C19      1.0000 0.93490  0.45490  0.15530  Biso   1.000  C
  C20      1.0000 0.15530  0.45490  0.93490  Biso   1.000  C
  C21      1.0000 0.54510  0.54510  0.06510  Biso   1.000  C
  C22      1.0000 0.54510  0.54510  0.84470  Biso   1.000  C
  C23      1.0000 0.84470  0.06510  0.54510  Biso   1.000  C
  C24      1.0000 0.06510  0.84470  0.54510  Biso   1.000  C
  C25      1.0000 0.06510  0.54510  0.84470  Biso   1.000  C
  C26      1.0000 0.84470  0.54510  0.06510  Biso   1.000  C
  C27      1.0000 0.54510  0.06510  0.54510  Biso   1.000  C
  C28      1.0000 0.54510  0.84470  0.54510  Biso   1.000  C
  C29      1.0000 0.84470  0.54510  0.54510  Biso   1.000  C
  C30      1.0000 0.06510  0.54510  0.54510  Biso   1.000  C
  C31      1.0000 0.54510  0.06510  0.84470  Biso   1.000  C
  C32      1.0000 0.54510  0.84470  0.06510  Biso   1.000  C
  C33      1.0000 0.47314  0.47314  0.96174  Biso   1.000  C
  C34      1.0000 0.47314  0.47314  0.09198  Biso   1.000  C
  C35      1.0000 0.96174  0.09198  0.47314  Biso   1.000  C
  C36      1.0000 0.09198  0.96174  0.47314  Biso   1.000  C
  C37      1.0000 0.47314  0.96174  0.09198  Biso   1.000  C
  C38      1.0000 0.47314  0.09198  0.96174  Biso   1.000  C
  C39      1.0000 0.96174  0.47314  0.47314  Biso   1.000  C
  C40      1.0000 0.09198  0.47314  0.47314  Biso   1.000  C
  C41      1.0000 0.47314  0.09198  0.47314  Biso   1.000  C
  C42      1.0000 0.47314  0.96174  0.47314  Biso   1.000  C
  C43      1.0000 0.96174  0.47314  0.09198  Biso   1.000  C
  C44      1.0000 0.09198  0.47314  0.96174  Biso   1.000  C
  C45      1.0000 0.52686  0.52686  0.03826  Biso   1.000  C
  C46      1.0000 0.52686  0.52686  0.90802  Biso   1.000  C
  C47      1.0000 0.90802  0.03826  0.52686  Biso   1.000  C
  C48      1.0000 0.03826  0.90802  0.52686  Biso   1.000  C
  C49      1.0000 0.03826  0.52686  0.90802  Biso   1.000  C
  C50      1.0000 0.90802  0.52686  0.03826  Biso   1.000  C
  C51      1.0000 0.52686  0.03826  0.52686  Biso   1.000  C
  C52      1.0000 0.52686  0.90802  0.52686  Biso   1.000  C
  C53      1.0000 0.90802  0.52686  0.52686  Biso   1.000  C
  C54      1.0000 0.03826  0.52686  0.52686  Biso   1.000  C
  C55      1.0000 0.52686  0.03826  0.90802  Biso   1.000  C
  C56      1.0000 0.52686  0.90802  0.03826  Biso   1.000  C
  C57      1.0000 0.38849  0.38849  0.11151  Biso   1.000  C
  C58      1.0000 0.44624  0.44624  0.05376  Biso   1.000  C
  C59      1.0000 0.11151  0.11151  0.38849  Biso   1.000  C
  C60      1.0000 0.05376  0.05376  0.44624  Biso   1.000  C
  C61      1.0000 0.38849  0.11151  0.11151  Biso   1.000  C
  C62      1.0000 0.44624  0.05376  0.05376  Biso   1.000  C
  C63      1.0000 0.11151  0.38849  0.38849  Biso   1.000  C
  C64      1.0000 0.05376  0.44624  0.44624  Biso   1.000  C
  C65      1.0000 0.38849  0.11151  0.38849  Biso   1.000  C
  C66      1.0000 0.44624  0.05376  0.44624  Biso   1.000  C
  C67      1.0000 0.11151  0.38849  0.11151  Biso   1.000  C
  C68      1.0000 0.05376  0.44624  0.05376  Biso   1.000  C
  C69      1.0000 0.61151  0.61151  0.88849  Biso   1.000  C
  C70      1.0000 0.55376  0.55376  0.94624  Biso   1.000  C
  C71      1.0000 0.88849  0.88849  0.61151  Biso   1.000  C
  C72      1.0000 0.94624  0.94624  0.55376  Biso   1.000  C
  C73      1.0000 0.88849  0.61151  0.88849  Biso   1.000  C
  C74      1.0000 0.94624  0.55376  0.94624  Biso   1.000  C
  C75      1.0000 0.61151  0.88849  0.61151  Biso   1.000  C
  C76      1.0000 0.55376  0.94624  0.55376  Biso   1.000  C
  C77      1.0000 0.88849  0.61151  0.61151  Biso   1.000  C
  C78      1.0000 0.94624  0.55376  0.55376  Biso   1.000  C
  C79      1.0000 0.61151  0.88849  0.88849  Biso   1.000  C
  C80      1.0000 0.55376  0.94624  0.94624  Biso   1.000  C
  C81      1.0000 0.25000  0.25000  0.25000  Biso   1.000  C
  C82      1.0000 0.75000  0.75000  0.75000  Biso   1.000  C
  C83      1.0000 0.36620  0.36620  0.07286  Biso   1.000  C
  C84      1.0000 0.36620  0.36620  0.19474  Biso   1.000  C
  C85      1.0000 0.07286  0.19474  0.36620  Biso   1.000  C
  C86      1.0000 0.19474  0.07286  0.36620  Biso   1.000  C
  C87      1.0000 0.36620  0.07286  0.19474  Biso   1.000  C
  C88      1.0000 0.36620  0.19474  0.07286  Biso   1.000  C
  C89      1.0000 0.07286  0.36620  0.36620  Biso   1.000  C
  C90      1.0000 0.19474  0.36620  0.36620  Biso   1.000  C
  C91      1.0000 0.36620  0.19474  0.36620  Biso   1.000  C
  C92      1.0000 0.36620  0.07286  0.36620  Biso   1.000  C
  C93      1.0000 0.07286  0.36620  0.19474  Biso   1.000  C
  C94      1.0000 0.19474  0.36620  0.07286  Biso   1.000  C
  C95      1.0000 0.63380  0.63380  0.92714  Biso   1.000  C
  C96      1.0000 0.63380  0.63380  0.80526  Biso   1.000  C
  C97      1.0000 0.80526  0.92714  0.63380  Biso   1.000  C
  C98      1.0000 0.92714  0.80526  0.63380  Biso   1.000  C
  C99      1.0000 0.92714  0.63380  0.80526  Biso   1.000  C
  C100     1.0000 0.80526  0.63380  0.92714  Biso   1.000  C
  C101     1.0000 0.63380  0.92714  0.63380  Biso   1.000  C
  C102     1.0000 0.63380  0.80526  0.63380  Biso   1.000  C
  C103     1.0000 0.80526  0.63380  0.63380  Biso   1.000  C
  C104     1.0000 0.92714  0.63380  0.63380  Biso   1.000  C
  C105     1.0000 0.63380  0.92714  0.80526  Biso   1.000  C
  C106     1.0000 0.63380  0.80526  0.92714  Biso   1.000  C
  O1       1.0000 0.00550  0.83927  0.13393  Biso   1.000  O
  O2       1.0000 0.83308  0.01170  0.13393  Biso   1.000  O
  O3       1.0000 0.42427  0.43047  0.72513  Biso   1.000  O
  O4       1.0000 0.00550  0.01170  0.13393  Biso   1.000  O
  O5       1.0000 0.42427  0.60289  0.55271  Biso   1.000  O
  O6       1.0000 0.42427  0.43047  0.55271  Biso   1.000  O
  O7       1.0000 0.59670  0.43047  0.55271  Biso   1.000  O
  O8       1.0000 0.00550  0.01170  0.96151  Biso   1.000  O
  O9       1.0000 0.62865  0.75762  0.37315  Biso   1.000  O
  O10      1.0000 0.18505  0.68455  0.31349  Biso   1.000  O
  O11      1.0000 0.75142  0.25092  0.37315  Biso   1.000  O
  O12      1.0000 0.15654  0.77445  0.89668  Biso   1.000  O
  O13      1.0000 0.62865  0.25092  0.87985  Biso   1.000  O
  O14      1.0000 0.76825  0.77445  0.28497  Biso   1.000  O
  O15      1.0000 0.60331  0.60951  0.45988  Biso   1.000  O
  O16      1.0000 0.67835  0.80732  0.31349  Biso   1.000  O
  O17      1.0000 0.80112  0.68455  0.31349  Biso   1.000  O
  O18      1.0000 0.15654  0.16274  0.89668  Biso   1.000  O
  O19      1.0000 0.15654  0.77445  0.28497  Biso   1.000  O
  O20      1.0000 0.24472  0.75762  0.75709  Biso   1.000  O
  O21      1.0000 0.24472  0.63485  0.37315  Biso   1.000  O
  O22      1.0000 0.09833  0.83266  0.22676  Biso   1.000  O
  O23      1.0000 0.82646  0.10452  0.95490  Biso   1.000  O
  O24      1.0000 0.60331  0.33764  0.45988  Biso   1.000  O
  O25      1.0000 0.82646  0.10452  0.22676  Biso   1.000  O
  O26      1.0000 0.82646  0.83266  0.22676  Biso   1.000  O
  O27      1.0000 0.75142  0.63485  0.37315  Biso   1.000  O
  O28      1.0000 0.80112  0.19125  0.31349  Biso   1.000  O
  O29      1.0000 0.33145  0.60951  0.45988  Biso   1.000  O
  O30      1.0000 0.67835  0.19125  0.31349  Biso   1.000  O
  O31      1.0000 0.24472  0.63485  0.87985  Biso   1.000  O
  O32      1.0000 0.09833  0.10452  0.95490  Biso   1.000  O
  O33      1.0000 0.67835  0.19125  0.92955  Biso   1.000  O
  O34      1.0000 0.60331  0.33764  0.73174  Biso   1.000  O
  O35      1.0000 0.27323  0.66772  0.40167  Biso   1.000  O
  O36      1.0000 0.62865  0.25092  0.37315  Biso   1.000  O
  O37      1.0000 0.18505  0.19125  0.80679  Biso   1.000  O
  O38      1.0000 0.09833  0.83266  0.95490  Biso   1.000  O
  O39      1.0000 0.75142  0.25092  0.75709  Biso   1.000  O
  O40      1.0000 0.18505  0.19125  0.92955  Biso   1.000  O
  O41      1.0000 0.66152  0.27943  0.78996  Biso   1.000  O
  O42      1.0000 0.24472  0.75762  0.37315  Biso   1.000  O
  O43      1.0000 0.24472  0.25092  0.75709  Biso   1.000  O
  O44      1.0000 0.33145  0.60951  0.73174  Biso   1.000  O
  O45      1.0000 0.24472  0.25092  0.87985  Biso   1.000  O
  O46      1.0000 0.18505  0.68455  0.92955  Biso   1.000  O
  O47      1.0000 0.18505  0.80732  0.80679  Biso   1.000  O
  O48      1.0000 0.76825  0.16274  0.28497  Biso   1.000  O
  O49      1.0000 0.18505  0.80732  0.31349  Biso   1.000  O
  O50      1.0000 0.66152  0.27943  0.40167  Biso   1.000  O
  O51      1.0000 0.27323  0.66772  0.78996  Biso   1.000  O
  O52      1.0000 0.33145  0.33764  0.73174  Biso   1.000  O
  O53      1.0000 0.27323  0.27943  0.78996  Biso   1.000  O
  O54      1.0000 0.76825  0.16274  0.89668  Biso   1.000  O
  O55      1.0000 0.80112  0.19125  0.80679  Biso   1.000  O
  O56      1.0000 0.66152  0.66772  0.40167  Biso   1.000  O
  O57      1.0000 0.35214  0.65156  0.48057  Biso   1.000  O
  O58      1.0000 0.35214  0.65156  0.64830  Biso   1.000  O
  O59      1.0000 0.07763  0.79060  0.20607  Biso   1.000  O
  O60      1.0000 0.51987  0.35834  0.77380  Biso   1.000  O
  O61      1.0000 0.35214  0.35834  0.77380  Biso   1.000  O
  O62      1.0000 0.07763  0.79060  0.03834  Biso   1.000  O
  O63      1.0000 0.90990  0.08383  0.91284  Biso   1.000  O
  O64      1.0000 0.07763  0.08383  0.91284  Biso   1.000  O
  O65      1.0000 0.35214  0.52607  0.48057  Biso   1.000  O
  O66      1.0000 0.64537  0.52607  0.48057  Biso   1.000  O
  O67      1.0000 0.07763  0.91610  0.20607  Biso   1.000  O
  O68      1.0000 0.35214  0.35834  0.64830  Biso   1.000  O
  O69      1.0000 0.90990  0.08383  0.20607  Biso   1.000  O
  O70      1.0000 0.78441  0.91610  0.20607  Biso   1.000  O
  O71      1.0000 0.78441  0.08383  0.20607  Biso   1.000  O
  O72      1.0000 0.35214  0.52607  0.77380  Biso   1.000  O
  O73      1.0000 0.46738  0.47358  0.59581  Biso   1.000  O
  O74      1.0000 0.51987  0.65156  0.48057  Biso   1.000  O
  O75      1.0000 0.90990  0.79060  0.20607  Biso   1.000  O
  O76      1.0000 0.78441  0.08383  0.03834  Biso   1.000  O
  O77      1.0000 0.64537  0.35834  0.48057  Biso   1.000  O
  O78      1.0000 0.07763  0.08383  0.03834  Biso   1.000  O
  O79      1.0000 0.96239  0.96859  0.09083  Biso   1.000  O
  O80      1.0000 0.51987  0.35834  0.48057  Biso   1.000  O
  O81      1.0000 0.07763  0.91610  0.91284  Biso   1.000  O
  O82      1.0000 0.64537  0.35834  0.64830  Biso   1.000  O
  O83      1.0000 0.55263  0.78956  0.39519  Biso   1.000  O
  O84      1.0000 0.16525  0.64866  0.29369  Biso   1.000  O
  O85      1.0000 0.78337  0.27296  0.39519  Biso   1.000  O
  O86      1.0000 0.55263  0.27296  0.91180  Biso   1.000  O
  O87      1.0000 0.64641  0.88334  0.29145  Biso   1.000  O
  O88      1.0000 0.87661  0.64866  0.29369  Biso   1.000  O
  O89      1.0000 0.26676  0.78956  0.68106  Biso   1.000  O
  O90      1.0000 0.26676  0.55883  0.39519  Biso   1.000  O
  O91      1.0000 0.78337  0.55883  0.39519  Biso   1.000  O
  O92      1.0000 0.87714  0.16921  0.29145  Biso   1.000  O
  O93      1.0000 0.64641  0.16921  0.29145  Biso   1.000  O
  O94      1.0000 0.26676  0.55883  0.91180  Biso   1.000  O
  O95      1.0000 0.64641  0.16921  0.00558  Biso   1.000  O
  O96      1.0000 0.55263  0.27296  0.39519  Biso   1.000  O
  O97      1.0000 0.16525  0.17145  0.77090  Biso   1.000  O
  O98      1.0000 0.78731  0.27072  0.68160  Biso   1.000  O
  O99      1.0000 0.16525  0.17145  0.00504  Biso   1.000  O
  O100     1.0000 0.26452  0.79350  0.39295  Biso   1.000  O
  O101     1.0000 0.26676  0.27296  0.68106  Biso   1.000  O
  O102     1.0000 0.26676  0.27296  0.91180  Biso   1.000  O
  O103     1.0000 0.16525  0.64866  0.00504  Biso   1.000  O
  O104     1.0000 0.16525  0.88281  0.77090  Biso   1.000  O
  O105     1.0000 0.16525  0.88281  0.29369  Biso   1.000  O
