data_image0
_cell_length_a       18.2662
_cell_length_b       18.2662
_cell_length_c       18.2662
_cell_angle_alpha    60
_cell_angle_beta     60
_cell_angle_gamma    60

_symmetry_space_group_name_H-M    "P 1"
_symmetry_int_tables_number       1

loop_
  _symmetry_equiv_pos_as_xyz
  'x, y, z'

loop_
  _atom_site_label
  _atom_site_occupancy
  _atom_site_fract_x
  _atom_site_fract_y
  _atom_site_fract_z
  _atom_site_thermal_displace_type
  _atom_site_B_iso_or_equiv
  _atom_site_type_symbol
  C1       1.0000 0.29353  0.29352  0.11943  Biso   1.000  C
  C2       1.0000 0.29353  0.29352  0.29352  Biso   1.000  C
  C3       1.0000 0.11944  0.29352  0.29352  Biso   1.000  C
  C4       1.0000 0.29353  0.11943  0.29352  Biso   1.000  C
  C5       1.0000 0.70647  0.70648  0.88057  Biso   1.000  C
  C6       1.0000 0.70647  0.70648  0.70648  Biso   1.000  C
  C7       1.0000 0.70647  0.88057  0.70648  Biso   1.000  C
  C8       1.0000 0.88056  0.70648  0.70648  Biso   1.000  C
  C9       1.0000 0.45570  0.45570  0.93590  Biso   1.000  C
  C10      1.0000 0.45570  0.45570  0.15270  Biso   1.000  C
  C11      1.0000 0.93590  0.15270  0.45570  Biso   1.000  C
  C12      1.0000 0.15270  0.93590  0.45570  Biso   1.000  C
  C13      1.0000 0.45570  0.93590  0.15270  Biso   1.000  C
  C14      1.0000 0.45570  0.15270  0.93590  Biso   1.000  C
  C15      1.0000 0.93590  0.45570  0.45570  Biso   1.000  C
  C16      1.0000 0.15270  0.45570  0.45570  Biso   1.000  C
  C17      1.0000 0.45570  0.15270  0.45570  Biso   1.000  C
  C18      1.0000 0.45570  0.93590  0.45570  Biso   1.000  C
  C19      1.0000 0.93590  0.45570  0.15270  Biso   1.000  C
  C20      1.0000 0.15270  0.45570  0.93590  Biso   1.000  C
  C21      1.0000 0.54430  0.54430  0.06410  Biso   1.000  C
  C22      1.0000 0.54430  0.54430  0.84730  Biso   1.000  C
  C23      1.0000 0.84730  0.06410  0.54430  Biso   1.000  C
  C24      1.0000 0.06410  0.84730  0.54430  Biso   1.000  C
  C25      1.0000 0.06410  0.54430  0.84730  Biso   1.000  C
  C26      1.0000 0.84730  0.54430  0.06410  Biso   1.000  C
  C27      1.0000 0.54430  0.06410  0.54430  Biso   1.000  C
  C28      1.0000 0.54430  0.84730  0.54430  Biso   1.000  C
  C29      1.0000 0.84730  0.54430  0.54430  Biso   1.000  C
  C30      1.0000 0.06410  0.54430  0.54430  Biso   1.000  C
  C31      1.0000 0.54430  0.06410  0.84730  Biso   1.000  C
  C32      1.0000 0.54430  0.84730  0.06410  Biso   1.000  C
  C33      1.0000 0.47342  0.47342  0.96246  Biso   1.000  C
  C34      1.0000 0.47342  0.47342  0.09070  Biso   1.000  C
  C35      1.0000 0.96246  0.09070  0.47342  Biso   1.000  C
  C36      1.0000 0.09070  0.96246  0.47342  Biso   1.000  C
  C37      1.0000 0.47342  0.96246  0.09070  Biso   1.000  C
  C38      1.0000 0.47342  0.09070  0.96246  Biso   1.000  C
  C39      1.0000 0.96246  0.47342  0.47342  Biso   1.000  C
  C40      1.0000 0.09070  0.47342  0.47342  Biso   1.000  C
  C41      1.0000 0.47342  0.09070  0.47342  Biso   1.000  C
  C42      1.0000 0.47342  0.96246  0.47342  Biso   1.000  C
  C43      1.0000 0.96246  0.47342  0.09070  Biso   1.000  C
  C44      1.0000 0.09070  0.47342  0.96246  Biso   1.000  C
  C45      1.0000 0.52658  0.52658  0.03754  Biso   1.000  C
  C46      1.0000 0.52658  0.52658  0.90930  Biso   1.000  C
  C47      1.0000 0.90930  0.03754  0.52658  Biso   1.000  C
  C48      1.0000 0.03754  0.90930  0.52658  Biso   1.000  C
  C49      1.0000 0.03754  0.52658  0.90930  Biso   1.000  C
  C50      1.0000 0.90930  0.52658  0.03754  Biso   1.000  C
  C51      1.0000 0.52658  0.03754  0.52658  Biso   1.000  C
  C52      1.0000 0.52658  0.90930  0.52658  Biso   1.000  C
  C53      1.0000 0.90930  0.52658  0.52658  Biso   1.000  C
  C54      1.0000 0.03754  0.52658  0.52658  Biso   1.000  C
  C55      1.0000 0.52658  0.03754  0.90930  Biso   1.000  C
  C56      1.0000 0.52658  0.90930  0.03754  Biso   1.000  C
  C57      1.0000 0.38858  0.38858  0.11142  Biso   1.000  C
  C58      1.0000 0.44625  0.44625  0.05375  Biso   1.000  C
  C59      1.0000 0.11142  0.11142  0.38858  Biso   1.000  C
  C60      1.0000 0.05375  0.05375  0.44625  Biso   1.000  C
  C61      1.0000 0.38858  0.11142  0.11142  Biso   1.000  C
  C62      1.0000 0.44625  0.05375  0.05375  Biso   1.000  C
  C63      1.0000 0.11142  0.38858  0.38858  Biso   1.000  C
  C64      1.0000 0.05375  0.44625  0.44625  Biso   1.000  C
  C65      1.0000 0.38858  0.11142  0.38858  Biso   1.000  C
  C66      1.0000 0.44625  0.05375  0.44625  Biso   1.000  C
  C67      1.0000 0.11142  0.38858  0.11142  Biso   1.000  C
  C68      1.0000 0.05375  0.44625  0.05375  Biso   1.000  C
  C69      1.0000 0.61142  0.61142  0.88858  Biso   1.000  C
  C70      1.0000 0.55375  0.55375  0.94625  Biso   1.000  C
  C71      1.0000 0.88858  0.88858  0.61142  Biso   1.000  C
  C72      1.0000 0.94625  0.94625  0.55375  Biso   1.000  C
  C73      1.0000 0.88858  0.61142  0.88858  Biso   1.000  C
  C74      1.0000 0.94625  0.55375  0.94625  Biso   1.000  C
  C75      1.0000 0.61142  0.88858  0.61142  Biso   1.000  C
  C76      1.0000 0.55375  0.94625  0.55375  Biso   1.000  C
  C77      1.0000 0.88858  0.61142  0.61142  Biso   1.000  C
  C78      1.0000 0.94625  0.55375  0.55375  Biso   1.000  C
  C79      1.0000 0.61142  0.88858  0.88858  Biso   1.000  C
  C80      1.0000 0.55375  0.94625  0.94625  Biso   1.000  C
  C81      1.0000 0.25000  0.25000  0.25000  Biso   1.000  C
  C82      1.0000 0.75000  0.75000  0.75000  Biso   1.000  C
  C83      1.0000 0.36617  0.36617  0.07287  Biso   1.000  C
  C84      1.0000 0.36617  0.36617  0.19479  Biso   1.000  C
  C85      1.0000 0.07287  0.19479  0.36617  Biso   1.000  C
  C86      1.0000 0.19479  0.07287  0.36617  Biso   1.000  C
  C87      1.0000 0.36617  0.07287  0.19479  Biso   1.000  C
  C88      1.0000 0.36617  0.19479  0.07287  Biso   1.000  C
  C89      1.0000 0.07287  0.36617  0.36617  Biso   1.000  C
  C90      1.0000 0.19479  0.36617  0.36617  Biso   1.000  C
  C91      1.0000 0.36617  0.19479  0.36617  Biso   1.000  C
  C92      1.0000 0.36617  0.07287  0.36617  Biso   1.000  C
  C93      1.0000 0.07287  0.36617  0.19479  Biso   1.000  C
  C94      1.0000 0.19479  0.36617  0.07287  Biso   1.000  C
  C95      1.0000 0.63383  0.63383  0.92713  Biso   1.000  C
  C96      1.0000 0.63383  0.63383  0.80521  Biso   1.000  C
  C97      1.0000 0.80521  0.92713  0.63383  Biso   1.000  C
  C98      1.0000 0.92713  0.80521  0.63383  Biso   1.000  C
  C99      1.0000 0.92713  0.63383  0.80521  Biso   1.000  C
  C100     1.0000 0.80521  0.63383  0.92713  Biso   1.000  C
  C101     1.0000 0.63383  0.92713  0.63383  Biso   1.000  C
  C102     1.0000 0.63383  0.80521  0.63383  Biso   1.000  C
  C103     1.0000 0.80521  0.63383  0.63383  Biso   1.000  C
  C104     1.0000 0.92713  0.63383  0.63383  Biso   1.000  C
  C105     1.0000 0.63383  0.92713  0.80521  Biso   1.000  C
  C106     1.0000 0.63383  0.80521  0.92713  Biso   1.000  C
  O1       1.0000 0.10574  0.92588  0.06705  Biso   1.000  O
  O2       1.0000 0.10574  0.75284  0.06705  Biso   1.000  O
  O3       1.0000 0.10574  0.92588  0.89401  Biso   1.000  O
  O4       1.0000 0.93270  0.92588  0.06705  Biso   1.000  O
  O5       1.0000 0.50105  0.51845  0.48659  Biso   1.000  O
  O6       1.0000 0.50105  0.34542  0.48659  Biso   1.000  O
  O7       1.0000 0.50105  0.34542  0.65963  Biso   1.000  O
  O8       1.0000 0.67409  0.34542  0.48659  Biso   1.000  O
  O9       1.0000 0.28436  0.71705  0.24567  Biso   1.000  O
  O10      1.0000 0.28436  0.60443  0.24567  Biso   1.000  O
  O11      1.0000 0.89691  0.10450  0.74560  Biso   1.000  O
  O12      1.0000 0.78429  0.10450  0.85822  Biso   1.000  O
  O13      1.0000 0.89691  0.10450  0.24567  Biso   1.000  O
  O14      1.0000 0.78429  0.10450  0.24567  Biso   1.000  O
  O15      1.0000 0.28436  0.60443  0.85822  Biso   1.000  O
  O16      1.0000 0.28436  0.71705  0.74560  Biso   1.000  O
  O17      1.0000 0.28436  0.10450  0.85822  Biso   1.000  O
  O18      1.0000 0.28436  0.10450  0.74560  Biso   1.000  O
  O19      1.0000 0.78429  0.71705  0.24567  Biso   1.000  O
  O20      1.0000 0.89691  0.60443  0.24567  Biso   1.000  O
  O21      1.0000 0.32243  0.66686  0.30797  Biso   1.000  O
  O22      1.0000 0.32243  0.55424  0.30797  Biso   1.000  O
  O23      1.0000 0.70988  0.16680  0.80804  Biso   1.000  O
  O24      1.0000 0.82250  0.16680  0.69542  Biso   1.000  O
  O25      1.0000 0.70988  0.66686  0.30797  Biso   1.000  O
  O26      1.0000 0.82250  0.55424  0.30797  Biso   1.000  O
  O27      1.0000 0.32243  0.16680  0.69542  Biso   1.000  O
  O28      1.0000 0.32243  0.16680  0.80804  Biso   1.000  O
  O29      1.0000 0.32243  0.66686  0.69542  Biso   1.000  O
  O30      1.0000 0.32243  0.55424  0.80804  Biso   1.000  O
  O31      1.0000 0.82250  0.16680  0.30797  Biso   1.000  O
  O32      1.0000 0.70988  0.16680  0.30797  Biso   1.000  O
  O33      1.0000 0.25571  0.68939  0.21702  Biso   1.000  O
  O34      1.0000 0.20049  0.74461  0.16180  Biso   1.000  O
  O35      1.0000 0.86925  0.07585  0.83056  Biso   1.000  O
  O36      1.0000 0.92447  0.02063  0.88578  Biso   1.000  O
  O37      1.0000 0.86925  0.07585  0.21702  Biso   1.000  O
  O38      1.0000 0.92447  0.02063  0.16180  Biso   1.000  O
  O39      1.0000 0.25571  0.68939  0.83056  Biso   1.000  O
  O40      1.0000 0.20049  0.74461  0.88578  Biso   1.000  O
  O41      1.0000 0.25571  0.07585  0.83056  Biso   1.000  O
  O42      1.0000 0.20049  0.02063  0.88578  Biso   1.000  O
  O43      1.0000 0.86925  0.68939  0.21702  Biso   1.000  O
  O44      1.0000 0.92447  0.74461  0.16180  Biso   1.000  O
  O45      1.0000 0.35108  0.58191  0.33662  Biso   1.000  O
  O46      1.0000 0.40630  0.52668  0.39184  Biso   1.000  O
  O47      1.0000 0.73754  0.19545  0.72308  Biso   1.000  O
  O48      1.0000 0.68232  0.25067  0.66786  Biso   1.000  O
  O49      1.0000 0.73754  0.58191  0.33662  Biso   1.000  O
  O50      1.0000 0.68232  0.52668  0.39184  Biso   1.000  O
  O51      1.0000 0.35108  0.19545  0.72308  Biso   1.000  O
  O52      1.0000 0.40630  0.25067  0.66786  Biso   1.000  O
  O53      1.0000 0.35108  0.58191  0.72308  Biso   1.000  O
  O54      1.0000 0.40630  0.52668  0.66786  Biso   1.000  O
  O55      1.0000 0.73754  0.19545  0.33662  Biso   1.000  O
  O56      1.0000 0.68232  0.25067  0.39184  Biso   1.000  O
  O57      1.0000 0.06248  0.88262  0.02379  Biso   1.000  O
  O58      1.0000 0.54431  0.38868  0.52985  Biso   1.000  O
  O59      1.0000 0.17678  0.82740  0.13809  Biso   1.000  O
  O60      1.0000 0.17678  0.70924  0.13809  Biso   1.000  O
  O61      1.0000 0.00726  0.99692  0.85042  Biso   1.000  O
  O62      1.0000 0.88911  0.99692  0.96857  Biso   1.000  O
  O63      1.0000 0.00726  0.99692  0.13809  Biso   1.000  O
  O64      1.0000 0.88911  0.99692  0.13809  Biso   1.000  O
  O65      1.0000 0.17678  0.70924  0.96857  Biso   1.000  O
  O66      1.0000 0.17678  0.82740  0.85042  Biso   1.000  O
  O67      1.0000 0.17678  0.99692  0.96857  Biso   1.000  O
  O68      1.0000 0.17678  0.99692  0.85042  Biso   1.000  O
  O69      1.0000 0.88911  0.82740  0.13809  Biso   1.000  O
  O70      1.0000 0.00726  0.70924  0.13809  Biso   1.000  O
  O71      1.0000 0.43001  0.56205  0.41555  Biso   1.000  O
  O72      1.0000 0.43001  0.44390  0.41555  Biso   1.000  O
  O73      1.0000 0.59953  0.27438  0.70322  Biso   1.000  O
  O74      1.0000 0.71768  0.27438  0.58507  Biso   1.000  O
  O75      1.0000 0.59953  0.56205  0.41555  Biso   1.000  O
  O76      1.0000 0.71768  0.44390  0.41555  Biso   1.000  O
  O77      1.0000 0.43001  0.27438  0.58507  Biso   1.000  O
  O78      1.0000 0.43001  0.27438  0.70322  Biso   1.000  O
  O79      1.0000 0.43001  0.56205  0.58507  Biso   1.000  O
  O80      1.0000 0.43001  0.44390  0.70322  Biso   1.000  O
  O81      1.0000 0.71768  0.27438  0.41555  Biso   1.000  O
  O82      1.0000 0.59953  0.27438  0.41555  Biso   1.000  O
  O83      1.0000 0.26230  0.79316  0.22360  Biso   1.000  O
  O84      1.0000 0.26230  0.57244  0.22360  Biso   1.000  O
  O85      1.0000 0.97304  0.08243  0.71361  Biso   1.000  O
  O86      1.0000 0.75232  0.08243  0.93434  Biso   1.000  O
  O87      1.0000 0.75232  0.08243  0.22360  Biso   1.000  O
  O88      1.0000 0.26230  0.57244  0.93434  Biso   1.000  O
  O89      1.0000 0.26230  0.79316  0.71361  Biso   1.000  O
  O90      1.0000 0.26230  0.08243  0.93434  Biso   1.000  O
  O91      1.0000 0.26230  0.08243  0.71361  Biso   1.000  O
  O92      1.0000 0.75232  0.79316  0.22360  Biso   1.000  O
  O93      1.0000 0.97304  0.57244  0.22360  Biso   1.000  O
  O94      1.0000 0.34449  0.69885  0.33004  Biso   1.000  O
  O95      1.0000 0.34449  0.47813  0.33004  Biso   1.000  O
  O96      1.0000 0.63375  0.18887  0.84002  Biso   1.000  O
  O97      1.0000 0.85448  0.18887  0.61930  Biso   1.000  O
  O98      1.0000 0.63375  0.69885  0.33004  Biso   1.000  O
  O99      1.0000 0.85448  0.47813  0.33004  Biso   1.000  O
  O100     1.0000 0.34449  0.18887  0.61930  Biso   1.000  O
  O101     1.0000 0.34449  0.18887  0.84002  Biso   1.000  O
  O102     1.0000 0.34449  0.47813  0.84002  Biso   1.000  O
  O103     1.0000 0.85448  0.18887  0.33004  Biso   1.000  O
  O104     1.0000 0.63375  0.18887  0.33004  Biso   1.000  O
  O105     1.0000 0.34449  0.69885  0.61930  Biso   1.000  O
