data_image0
_cell_length_a       18.2751
_cell_length_b       18.2751
_cell_length_c       18.2751
_cell_angle_alpha    60
_cell_angle_beta     60
_cell_angle_gamma    60

_symmetry_space_group_name_H-M    "P 1"
_symmetry_int_tables_number       1

loop_
  _symmetry_equiv_pos_as_xyz
  'x, y, z'

loop_
  _atom_site_label
  _atom_site_occupancy
  _atom_site_fract_x
  _atom_site_fract_y
  _atom_site_fract_z
  _atom_site_thermal_displace_type
  _atom_site_B_iso_or_equiv
  _atom_site_type_symbol
  Zn1      1.0000 0.29350  0.29349  0.11952  Biso   1.000  Zn
  Zn2      1.0000 0.29350  0.29349  0.29349  Biso   1.000  Zn
  Zn3      1.0000 0.11953  0.29349  0.29349  Biso   1.000  Zn
  Zn4      1.0000 0.29350  0.11952  0.29349  Biso   1.000  Zn
  Zn5      1.0000 0.70650  0.70651  0.88048  Biso   1.000  Zn
  Zn6      1.0000 0.70650  0.70651  0.70651  Biso   1.000  Zn
  Zn7      1.0000 0.70650  0.88048  0.70651  Biso   1.000  Zn
  Zn8      1.0000 0.88047  0.70651  0.70651  Biso   1.000  Zn
  H1       1.0000 0.45530  0.45530  0.93570  Biso   1.000  H
  H2       1.0000 0.45530  0.45530  0.15370  Biso   1.000  H
  H3       1.0000 0.93570  0.15370  0.45530  Biso   1.000  H
  H4       1.0000 0.15370  0.93570  0.45530  Biso   1.000  H
  H5       1.0000 0.45530  0.93570  0.15370  Biso   1.000  H
  H6       1.0000 0.45530  0.15370  0.93570  Biso   1.000  H
  H7       1.0000 0.93570  0.45530  0.45530  Biso   1.000  H
  H8       1.0000 0.15370  0.45530  0.45530  Biso   1.000  H
  H9       1.0000 0.45530  0.15370  0.45530  Biso   1.000  H
  H10      1.0000 0.45530  0.93570  0.45530  Biso   1.000  H
  H11      1.0000 0.93570  0.45530  0.15370  Biso   1.000  H
  H12      1.0000 0.15370  0.45530  0.93570  Biso   1.000  H
  H13      1.0000 0.54470  0.54470  0.06430  Biso   1.000  H
  H14      1.0000 0.54470  0.54470  0.84630  Biso   1.000  H
  H15      1.0000 0.84630  0.06430  0.54470  Biso   1.000  H
  H16      1.0000 0.06430  0.84630  0.54470  Biso   1.000  H
  H17      1.0000 0.06430  0.54470  0.84630  Biso   1.000  H
  H18      1.0000 0.84630  0.54470  0.06430  Biso   1.000  H
  H19      1.0000 0.54470  0.06430  0.54470  Biso   1.000  H
  H20      1.0000 0.54470  0.84630  0.54470  Biso   1.000  H
  H21      1.0000 0.84630  0.54470  0.54470  Biso   1.000  H
  H22      1.0000 0.06430  0.54470  0.54470  Biso   1.000  H
  H23      1.0000 0.54470  0.06430  0.84630  Biso   1.000  H
  H24      1.0000 0.54470  0.84630  0.06430  Biso   1.000  H
  C1       1.0000 0.47331  0.47331  0.96231  Biso   1.000  C
  C2       1.0000 0.47331  0.47331  0.09107  Biso   1.000  C
  C3       1.0000 0.96231  0.09107  0.47331  Biso   1.000  C
  C4       1.0000 0.09107  0.96231  0.47331  Biso   1.000  C
  C5       1.0000 0.47331  0.96231  0.09107  Biso   1.000  C
  C6       1.0000 0.47331  0.09107  0.96231  Biso   1.000  C
  C7       1.0000 0.96231  0.47331  0.47331  Biso   1.000  C
  C8       1.0000 0.09107  0.47331  0.47331  Biso   1.000  C
  C9       1.0000 0.47331  0.09107  0.47331  Biso   1.000  C
  C10      1.0000 0.47331  0.96231  0.47331  Biso   1.000  C
  C11      1.0000 0.96231  0.47331  0.09107  Biso   1.000  C
  C12      1.0000 0.09107  0.47331  0.96231  Biso   1.000  C
  C13      1.0000 0.52669  0.52669  0.03769  Biso   1.000  C
  C14      1.0000 0.52669  0.52669  0.90893  Biso   1.000  C
  C15      1.0000 0.90893  0.03769  0.52669  Biso   1.000  C
  C16      1.0000 0.03769  0.90893  0.52669  Biso   1.000  C
  C17      1.0000 0.03769  0.52669  0.90893  Biso   1.000  C
  C18      1.0000 0.90893  0.52669  0.03769  Biso   1.000  C
  C19      1.0000 0.52669  0.03769  0.52669  Biso   1.000  C
  C20      1.0000 0.52669  0.90893  0.52669  Biso   1.000  C
  C21      1.0000 0.90893  0.52669  0.52669  Biso   1.000  C
  C22      1.0000 0.03769  0.52669  0.52669  Biso   1.000  C
  C23      1.0000 0.52669  0.03769  0.90893  Biso   1.000  C
  C24      1.0000 0.52669  0.90893  0.03769  Biso   1.000  C
  C25      1.0000 0.38853  0.38853  0.11147  Biso   1.000  C
  C26      1.0000 0.44625  0.44625  0.05375  Biso   1.000  C
  C27      1.0000 0.11147  0.11147  0.38853  Biso   1.000  C
  C28      1.0000 0.05375  0.05375  0.44625  Biso   1.000  C
  C29      1.0000 0.38853  0.11147  0.11147  Biso   1.000  C
  C30      1.0000 0.44625  0.05375  0.05375  Biso   1.000  C
  C31      1.0000 0.11147  0.38853  0.38853  Biso   1.000  C
  C32      1.0000 0.05375  0.44625  0.44625  Biso   1.000  C
  C33      1.0000 0.38853  0.11147  0.38853  Biso   1.000  C
  C34      1.0000 0.44625  0.05375  0.44625  Biso   1.000  C
  C35      1.0000 0.11147  0.38853  0.11147  Biso   1.000  C
  C36      1.0000 0.05375  0.44625  0.05375  Biso   1.000  C
  C37      1.0000 0.61147  0.61147  0.88853  Biso   1.000  C
  C38      1.0000 0.55375  0.55375  0.94625  Biso   1.000  C
  C39      1.0000 0.88853  0.88853  0.61147  Biso   1.000  C
  C40      1.0000 0.94625  0.94625  0.55375  Biso   1.000  C
  C41      1.0000 0.88853  0.61147  0.88853  Biso   1.000  C
  C42      1.0000 0.94625  0.55375  0.94625  Biso   1.000  C
  C43      1.0000 0.61147  0.88853  0.61147  Biso   1.000  C
  C44      1.0000 0.55375  0.94625  0.55375  Biso   1.000  C
  C45      1.0000 0.88853  0.61147  0.61147  Biso   1.000  C
  C46      1.0000 0.94625  0.55375  0.55375  Biso   1.000  C
  C47      1.0000 0.61147  0.88853  0.88853  Biso   1.000  C
  C48      1.0000 0.55375  0.94625  0.94625  Biso   1.000  C
  O1       1.0000 0.25000  0.25000  0.25000  Biso   1.000  O
  O2       1.0000 0.75000  0.75000  0.75000  Biso   1.000  O
  O3       1.0000 0.36609  0.36609  0.07299  Biso   1.000  O
  O4       1.0000 0.36609  0.36609  0.19483  Biso   1.000  O
  O5       1.0000 0.07299  0.19483  0.36609  Biso   1.000  O
  O6       1.0000 0.19483  0.07299  0.36609  Biso   1.000  O
  O7       1.0000 0.36609  0.07299  0.19483  Biso   1.000  O
  O8       1.0000 0.36609  0.19483  0.07299  Biso   1.000  O
  O9       1.0000 0.07299  0.36609  0.36609  Biso   1.000  O
  O10      1.0000 0.19483  0.36609  0.36609  Biso   1.000  O
  O11      1.0000 0.36609  0.19483  0.36609  Biso   1.000  O
  O12      1.0000 0.36609  0.07299  0.36609  Biso   1.000  O
  O13      1.0000 0.07299  0.36609  0.19483  Biso   1.000  O
  O14      1.0000 0.19483  0.36609  0.07299  Biso   1.000  O
  O15      1.0000 0.63391  0.63391  0.92701  Biso   1.000  O
  O16      1.0000 0.63391  0.63391  0.80517  Biso   1.000  O
  O17      1.0000 0.80517  0.92701  0.63391  Biso   1.000  O
  O18      1.0000 0.92701  0.80517  0.63391  Biso   1.000  O
  O19      1.0000 0.92701  0.63391  0.80517  Biso   1.000  O
  O20      1.0000 0.80517  0.63391  0.92701  Biso   1.000  O
  O21      1.0000 0.63391  0.92701  0.63391  Biso   1.000  O
  O22      1.0000 0.63391  0.80517  0.63391  Biso   1.000  O
  O23      1.0000 0.80517  0.63391  0.63391  Biso   1.000  O
  O24      1.0000 0.92701  0.63391  0.63391  Biso   1.000  O
  O25      1.0000 0.63391  0.92701  0.80517  Biso   1.000  O
  O26      1.0000 0.63391  0.80517  0.92701  Biso   1.000  O
  Zn9      1.0000 0.00550  0.83990  0.13403  Biso   1.000  Zn
  Zn10     1.0000 0.83295  0.01246  0.13403  Biso   1.000  Zn
  Zn11     1.0000 0.42384  0.43079  0.72492  Biso   1.000  Zn
  Zn12     1.0000 0.00550  0.01246  0.13403  Biso   1.000  Zn
  Zn13     1.0000 0.42384  0.60335  0.55237  Biso   1.000  Zn
  Zn14     1.0000 0.42384  0.43079  0.55237  Biso   1.000  Zn
  Zn15     1.0000 0.59639  0.43079  0.55237  Biso   1.000  Zn
  Zn16     1.0000 0.00550  0.01246  0.96148  Biso   1.000  Zn
  C49      1.0000 0.62838  0.75818  0.37268  Biso   1.000  C
  C50      1.0000 0.18519  0.68506  0.31372  Biso   1.000  C
  C51      1.0000 0.75123  0.25111  0.37268  Biso   1.000  C
  C52      1.0000 0.15666  0.77503  0.89661  Biso   1.000  C
  C53      1.0000 0.62838  0.25111  0.87976  Biso   1.000  C
  C54      1.0000 0.76808  0.77503  0.28519  Biso   1.000  C
  C55      1.0000 0.60301  0.60996  0.45948  Biso   1.000  C
  C56      1.0000 0.67811  0.80792  0.31372  Biso   1.000  C
  C57      1.0000 0.80097  0.68506  0.31372  Biso   1.000  C
  C58      1.0000 0.15666  0.16361  0.89661  Biso   1.000  C
  C59      1.0000 0.15666  0.77503  0.28519  Biso   1.000  C
  C60      1.0000 0.24415  0.75818  0.75691  Biso   1.000  C
  C61      1.0000 0.24415  0.63533  0.37268  Biso   1.000  C
  C62      1.0000 0.09840  0.83328  0.22693  Biso   1.000  C
  C63      1.0000 0.82633  0.10535  0.95486  Biso   1.000  C
  C64      1.0000 0.60301  0.33790  0.45948  Biso   1.000  C
  C65      1.0000 0.82633  0.10535  0.22693  Biso   1.000  C
  C66      1.0000 0.82633  0.83328  0.22693  Biso   1.000  C
  C67      1.0000 0.75123  0.63533  0.37268  Biso   1.000  C
  C68      1.0000 0.80097  0.19214  0.31372  Biso   1.000  C
  C69      1.0000 0.33095  0.60996  0.45948  Biso   1.000  C
  C70      1.0000 0.67811  0.19214  0.31372  Biso   1.000  C
  C71      1.0000 0.24415  0.63533  0.87976  Biso   1.000  C
  C72      1.0000 0.09840  0.10535  0.95486  Biso   1.000  C
  C73      1.0000 0.67811  0.19214  0.92950  Biso   1.000  C
  C74      1.0000 0.60301  0.33790  0.73154  Biso   1.000  C
  C75      1.0000 0.27269  0.66822  0.40122  Biso   1.000  C
  C76      1.0000 0.62838  0.25111  0.37268  Biso   1.000  C
  C77      1.0000 0.18519  0.19214  0.80664  Biso   1.000  C
  C78      1.0000 0.09840  0.83328  0.95486  Biso   1.000  C
  C79      1.0000 0.75123  0.25111  0.75691  Biso   1.000  C
  C80      1.0000 0.18519  0.19214  0.92950  Biso   1.000  C
  C81      1.0000 0.66127  0.27964  0.78980  Biso   1.000  C
  C82      1.0000 0.24415  0.75818  0.37268  Biso   1.000  C
  C83      1.0000 0.24415  0.25111  0.75691  Biso   1.000  C
  C84      1.0000 0.33095  0.60996  0.73154  Biso   1.000  C
  C85      1.0000 0.24415  0.25111  0.87976  Biso   1.000  C
  C86      1.0000 0.18519  0.68506  0.92950  Biso   1.000  C
  C87      1.0000 0.18519  0.80792  0.80664  Biso   1.000  C
  C88      1.0000 0.76808  0.16361  0.28519  Biso   1.000  C
  C89      1.0000 0.18519  0.80792  0.31372  Biso   1.000  C
  C90      1.0000 0.66127  0.27964  0.40122  Biso   1.000  C
  C91      1.0000 0.27269  0.66822  0.78980  Biso   1.000  C
  C92      1.0000 0.33095  0.33790  0.73154  Biso   1.000  C
  C93      1.0000 0.27269  0.27964  0.78980  Biso   1.000  C
  C94      1.0000 0.76808  0.16361  0.89661  Biso   1.000  C
  C95      1.0000 0.80097  0.19214  0.80664  Biso   1.000  C
  C96      1.0000 0.66127  0.66822  0.40122  Biso   1.000  C
  O27      1.0000 0.35165  0.65205  0.48018  Biso   1.000  O
  O28      1.0000 0.35165  0.65205  0.64804  Biso   1.000  O
  O29      1.0000 0.07769  0.79120  0.20622  Biso   1.000  O
  O30      1.0000 0.51951  0.35860  0.77363  Biso   1.000  O
  O31      1.0000 0.35165  0.35860  0.77363  Biso   1.000  O
  O32      1.0000 0.07769  0.79120  0.03837  Biso   1.000  O
  O33      1.0000 0.90984  0.08464  0.91277  Biso   1.000  O
  O34      1.0000 0.07769  0.08464  0.91277  Biso   1.000  O
  O35      1.0000 0.35165  0.52646  0.48018  Biso   1.000  O
  O36      1.0000 0.64510  0.52646  0.48018  Biso   1.000  O
  O37      1.0000 0.07769  0.91679  0.20622  Biso   1.000  O
  O38      1.0000 0.35165  0.35860  0.64804  Biso   1.000  O
  O39      1.0000 0.90984  0.08464  0.20622  Biso   1.000  O
  O40      1.0000 0.78425  0.91679  0.20622  Biso   1.000  O
  O41      1.0000 0.78424  0.08464  0.20622  Biso   1.000  O
  O42      1.0000 0.35165  0.52646  0.77363  Biso   1.000  O
  O43      1.0000 0.46698  0.47393  0.59551  Biso   1.000  O
  O44      1.0000 0.51951  0.65205  0.48018  Biso   1.000  O
  O45      1.0000 0.90984  0.79120  0.20622  Biso   1.000  O
  O46      1.0000 0.78425  0.08464  0.03837  Biso   1.000  O
  O47      1.0000 0.64510  0.35860  0.48018  Biso   1.000  O
  O48      1.0000 0.07769  0.08464  0.03837  Biso   1.000  O
  O49      1.0000 0.96237  0.96932  0.09090  Biso   1.000  O
  O50      1.0000 0.51951  0.35860  0.48018  Biso   1.000  O
  O51      1.0000 0.07769  0.91679  0.91277  Biso   1.000  O
  O52      1.0000 0.64510  0.35860  0.64804  Biso   1.000  O
  H25      1.0000 0.55229  0.79016  0.39474  Biso   1.000  H
  H26      1.0000 0.16538  0.64915  0.29391  Biso   1.000  H
  H27      1.0000 0.78320  0.27316  0.39474  Biso   1.000  H
  H28      1.0000 0.55229  0.27316  0.91173  Biso   1.000  H
  H29      1.0000 0.64614  0.88400  0.29167  Biso   1.000  H
  H30      1.0000 0.87652  0.64915  0.29391  Biso   1.000  H
  H31      1.0000 0.26621  0.79016  0.68082  Biso   1.000  H
  H32      1.0000 0.26621  0.55925  0.39474  Biso   1.000  H
  H33      1.0000 0.78320  0.55925  0.39474  Biso   1.000  H
  H34      1.0000 0.87705  0.17009  0.29167  Biso   1.000  H
  H35      1.0000 0.64614  0.17009  0.29167  Biso   1.000  H
  H36      1.0000 0.26621  0.55925  0.91173  Biso   1.000  H
  H37      1.0000 0.64614  0.17009  0.00558  Biso   1.000  H
  H38      1.0000 0.55229  0.27316  0.39474  Biso   1.000  H
  H39      1.0000 0.16538  0.17233  0.77073  Biso   1.000  H
  H40      1.0000 0.78715  0.27092  0.68136  Biso   1.000  H
  H41      1.0000 0.16538  0.17233  0.00505  Biso   1.000  H
  H42      1.0000 0.26397  0.79410  0.39250  Biso   1.000  H
  H43      1.0000 0.26621  0.27316  0.68082  Biso   1.000  H
  H44      1.0000 0.26621  0.27316  0.91173  Biso   1.000  H
  H45      1.0000 0.16538  0.64915  0.00505  Biso   1.000  H
  H46      1.0000 0.16538  0.88347  0.77073  Biso   1.000  H
  H47      1.0000 0.16538  0.88347  0.29391  Biso   1.000  H
