data_image0
_cell_length_a       18.2861
_cell_length_b       18.2861
_cell_length_c       18.2861
_cell_angle_alpha    60
_cell_angle_beta     60
_cell_angle_gamma    60

_symmetry_space_group_name_H-M    "P 1"
_symmetry_int_tables_number       1

loop_
  _symmetry_equiv_pos_as_xyz
  'x, y, z'

loop_
  _atom_site_label
  _atom_site_occupancy
  _atom_site_fract_x
  _atom_site_fract_y
  _atom_site_fract_z
  _atom_site_thermal_displace_type
  _atom_site_B_iso_or_equiv
  _atom_site_type_symbol
  C1       1.0000 0.29346  0.29347  0.11960  Biso   1.000  C
  C2       1.0000 0.29346  0.29347  0.29347  Biso   1.000  C
  C3       1.0000 0.11959  0.29347  0.29347  Biso   1.000  C
  C4       1.0000 0.29346  0.11960  0.29347  Biso   1.000  C
  C5       1.0000 0.70654  0.70653  0.88040  Biso   1.000  C
  C6       1.0000 0.70654  0.70653  0.70653  Biso   1.000  C
  C7       1.0000 0.70654  0.88040  0.70653  Biso   1.000  C
  C8       1.0000 0.88041  0.70653  0.70653  Biso   1.000  C
  C9       1.0000 0.45500  0.45500  0.93520  Biso   1.000  C
  C10      1.0000 0.45500  0.45500  0.15480  Biso   1.000  C
  C11      1.0000 0.93520  0.15480  0.45500  Biso   1.000  C
  C12      1.0000 0.15480  0.93520  0.45500  Biso   1.000  C
  C13      1.0000 0.45500  0.93520  0.15480  Biso   1.000  C
  C14      1.0000 0.45500  0.15480  0.93520  Biso   1.000  C
  C15      1.0000 0.93520  0.45500  0.45500  Biso   1.000  C
  C16      1.0000 0.15480  0.45500  0.45500  Biso   1.000  C
  C17      1.0000 0.45500  0.15480  0.45500  Biso   1.000  C
  C18      1.0000 0.45500  0.93520  0.45500  Biso   1.000  C
  C19      1.0000 0.93520  0.45500  0.15480  Biso   1.000  C
  C20      1.0000 0.15480  0.45500  0.93520  Biso   1.000  C
  C21      1.0000 0.54500  0.54500  0.06480  Biso   1.000  C
  C22      1.0000 0.54500  0.54500  0.84520  Biso   1.000  C
  C23      1.0000 0.84520  0.06480  0.54500  Biso   1.000  C
  C24      1.0000 0.06480  0.84520  0.54500  Biso   1.000  C
  C25      1.0000 0.06480  0.54500  0.84520  Biso   1.000  C
  C26      1.0000 0.84520  0.54500  0.06480  Biso   1.000  C
  C27      1.0000 0.54500  0.06480  0.54500  Biso   1.000  C
  C28      1.0000 0.54500  0.84520  0.54500  Biso   1.000  C
  C29      1.0000 0.84520  0.54500  0.54500  Biso   1.000  C
  C30      1.0000 0.06480  0.54500  0.54500  Biso   1.000  C
  C31      1.0000 0.54500  0.06480  0.84520  Biso   1.000  C
  C32      1.0000 0.54500  0.84520  0.06480  Biso   1.000  C
  C33      1.0000 0.47322  0.47322  0.96212  Biso   1.000  C
  C34      1.0000 0.47322  0.47322  0.09144  Biso   1.000  C
  C35      1.0000 0.96212  0.09144  0.47322  Biso   1.000  C
  C36      1.0000 0.09144  0.96212  0.47322  Biso   1.000  C
  C37      1.0000 0.47322  0.96212  0.09144  Biso   1.000  C
  C38      1.0000 0.47322  0.09144  0.96212  Biso   1.000  C
  C39      1.0000 0.96212  0.47322  0.47322  Biso   1.000  C
  C40      1.0000 0.09144  0.47322  0.47322  Biso   1.000  C
  C41      1.0000 0.47322  0.09144  0.47322  Biso   1.000  C
  C42      1.0000 0.47322  0.96212  0.47322  Biso   1.000  C
  C43      1.0000 0.96212  0.47322  0.09144  Biso   1.000  C
  C44      1.0000 0.09144  0.47322  0.96212  Biso   1.000  C
  C45      1.0000 0.52678  0.52678  0.03788  Biso   1.000  C
  C46      1.0000 0.52678  0.52678  0.90856  Biso   1.000  C
  C47      1.0000 0.90856  0.03788  0.52678  Biso   1.000  C
  C48      1.0000 0.03788  0.90856  0.52678  Biso   1.000  C
  C49      1.0000 0.03788  0.52678  0.90856  Biso   1.000  C
  C50      1.0000 0.90856  0.52678  0.03788  Biso   1.000  C
  C51      1.0000 0.52678  0.03788  0.52678  Biso   1.000  C
  C52      1.0000 0.52678  0.90856  0.52678  Biso   1.000  C
  C53      1.0000 0.90856  0.52678  0.52678  Biso   1.000  C
  C54      1.0000 0.03788  0.52678  0.52678  Biso   1.000  C
  C55      1.0000 0.52678  0.03788  0.90856  Biso   1.000  C
  C56      1.0000 0.52678  0.90856  0.03788  Biso   1.000  C
  C57      1.0000 0.38840  0.38840  0.11160  Biso   1.000  C
  C58      1.0000 0.44639  0.44639  0.05361  Biso   1.000  C
  C59      1.0000 0.11160  0.11160  0.38840  Biso   1.000  C
  C60      1.0000 0.05361  0.05361  0.44639  Biso   1.000  C
  C61      1.0000 0.38840  0.11160  0.11160  Biso   1.000  C
  C62      1.0000 0.44639  0.05361  0.05361  Biso   1.000  C
  C63      1.0000 0.11160  0.38840  0.38840  Biso   1.000  C
  C64      1.0000 0.05361  0.44639  0.44639  Biso   1.000  C
  C65      1.0000 0.38840  0.11160  0.38840  Biso   1.000  C
  C66      1.0000 0.44639  0.05361  0.44639  Biso   1.000  C
  C67      1.0000 0.11160  0.38840  0.11160  Biso   1.000  C
  C68      1.0000 0.05361  0.44639  0.05361  Biso   1.000  C
  C69      1.0000 0.61160  0.61160  0.88840  Biso   1.000  C
  C70      1.0000 0.55361  0.55361  0.94639  Biso   1.000  C
  C71      1.0000 0.88840  0.88840  0.61160  Biso   1.000  C
  C72      1.0000 0.94639  0.94639  0.55361  Biso   1.000  C
  C73      1.0000 0.88840  0.61160  0.88840  Biso   1.000  C
  C74      1.0000 0.94639  0.55361  0.94639  Biso   1.000  C
  C75      1.0000 0.61160  0.88840  0.61160  Biso   1.000  C
  C76      1.0000 0.55361  0.94639  0.55361  Biso   1.000  C
  C77      1.0000 0.88840  0.61160  0.61160  Biso   1.000  C
  C78      1.0000 0.94639  0.55361  0.55361  Biso   1.000  C
  C79      1.0000 0.61160  0.88840  0.88840  Biso   1.000  C
  C80      1.0000 0.55361  0.94639  0.94639  Biso   1.000  C
  C81      1.0000 0.25000  0.25000  0.25000  Biso   1.000  C
  C82      1.0000 0.75000  0.75000  0.75000  Biso   1.000  C
  C83      1.0000 0.36612  0.36612  0.07298  Biso   1.000  C
  C84      1.0000 0.36612  0.36612  0.19478  Biso   1.000  C
  C85      1.0000 0.07298  0.19478  0.36612  Biso   1.000  C
  C86      1.0000 0.19478  0.07298  0.36612  Biso   1.000  C
  C87      1.0000 0.36612  0.07298  0.19478  Biso   1.000  C
  C88      1.0000 0.36612  0.19478  0.07298  Biso   1.000  C
  C89      1.0000 0.07298  0.36612  0.36612  Biso   1.000  C
  C90      1.0000 0.19478  0.36612  0.36612  Biso   1.000  C
  C91      1.0000 0.36612  0.19478  0.36612  Biso   1.000  C
  C92      1.0000 0.36612  0.07298  0.36612  Biso   1.000  C
  C93      1.0000 0.07298  0.36612  0.19478  Biso   1.000  C
  C94      1.0000 0.19478  0.36612  0.07298  Biso   1.000  C
  C95      1.0000 0.63388  0.63388  0.92702  Biso   1.000  C
  C96      1.0000 0.63388  0.63388  0.80522  Biso   1.000  C
  C97      1.0000 0.80522  0.92702  0.63388  Biso   1.000  C
  C98      1.0000 0.92702  0.80522  0.63388  Biso   1.000  C
  C99      1.0000 0.92702  0.63388  0.80522  Biso   1.000  C
  C100     1.0000 0.80522  0.63388  0.92702  Biso   1.000  C
  C101     1.0000 0.63388  0.92702  0.63388  Biso   1.000  C
  C102     1.0000 0.63388  0.80522  0.63388  Biso   1.000  C
  C103     1.0000 0.80522  0.63388  0.63388  Biso   1.000  C
  C104     1.0000 0.92702  0.63388  0.63388  Biso   1.000  C
  C105     1.0000 0.63388  0.92702  0.80522  Biso   1.000  C
  C106     1.0000 0.63388  0.80522  0.92702  Biso   1.000  C
  O1       1.0000 0.00550  0.83940  0.13395  Biso   1.000  O
  O2       1.0000 0.00550  0.01331  0.13395  Biso   1.000  O
  O3       1.0000 0.83159  0.01331  0.13395  Biso   1.000  O
  O4       1.0000 0.00550  0.01331  0.96004  Biso   1.000  O
  O5       1.0000 0.42049  0.42571  0.54635  Biso   1.000  O
  O6       1.0000 0.42049  0.59963  0.54635  Biso   1.000  O
  O7       1.0000 0.59441  0.42571  0.54635  Biso   1.000  O
  O8       1.0000 0.42049  0.42571  0.72027  Biso   1.000  O
  O9       1.0000 0.86780  0.65373  0.29564  Biso   1.000  O
  O10      1.0000 0.16719  0.17500  0.99626  Biso   1.000  O
  O11      1.0000 0.64592  0.87561  0.29564  Biso   1.000  O
  O12      1.0000 0.16719  0.17500  0.77437  Biso   1.000  O
  O13      1.0000 0.64592  0.17500  0.99626  Biso   1.000  O
  O14      1.0000 0.16719  0.87561  0.29564  Biso   1.000  O
  O15      1.0000 0.86780  0.17500  0.77437  Biso   1.000  O
  O16      1.0000 0.16719  0.65373  0.29564  Biso   1.000  O
  O17      1.0000 0.16719  0.87561  0.77437  Biso   1.000  O
  O18      1.0000 0.86780  0.17500  0.29564  Biso   1.000  O
  O19      1.0000 0.16719  0.65373  0.99626  Biso   1.000  O
  O20      1.0000 0.64592  0.17500  0.29564  Biso   1.000  O
  O21      1.0000 0.55819  0.26402  0.38466  Biso   1.000  O
  O22      1.0000 0.25880  0.78530  0.68405  Biso   1.000  O
  O23      1.0000 0.78008  0.26402  0.38466  Biso   1.000  O
  O24      1.0000 0.25880  0.56341  0.90594  Biso   1.000  O
  O25      1.0000 0.78008  0.26402  0.68405  Biso   1.000  O
  O26      1.0000 0.25880  0.78530  0.38466  Biso   1.000  O
  O27      1.0000 0.55819  0.26402  0.90594  Biso   1.000  O
  O28      1.0000 0.25880  0.56341  0.38466  Biso   1.000  O
  O29      1.0000 0.25880  0.26402  0.90594  Biso   1.000  O
  O30      1.0000 0.55819  0.78530  0.38466  Biso   1.000  O
  O31      1.0000 0.25880  0.26402  0.68405  Biso   1.000  O
  O32      1.0000 0.78008  0.56341  0.38466  Biso   1.000  O
  O33      1.0000 0.80451  0.68031  0.31400  Biso   1.000  O
  O34      1.0000 0.18554  0.19336  0.93296  Biso   1.000  O
  O35      1.0000 0.67250  0.81232  0.31400  Biso   1.000  O
  O36      1.0000 0.18554  0.19336  0.80095  Biso   1.000  O
  O37      1.0000 0.67250  0.19336  0.93296  Biso   1.000  O
  O38      1.0000 0.18554  0.81232  0.31400  Biso   1.000  O
  O39      1.0000 0.80451  0.19336  0.80095  Biso   1.000  O
  O40      1.0000 0.18554  0.68031  0.31400  Biso   1.000  O
  O41      1.0000 0.18554  0.81232  0.80095  Biso   1.000  O
  O42      1.0000 0.80451  0.19336  0.31400  Biso   1.000  O
  O43      1.0000 0.18554  0.68031  0.93296  Biso   1.000  O
  O44      1.0000 0.67250  0.19336  0.31400  Biso   1.000  O
  O45      1.0000 0.62148  0.24567  0.36631  Biso   1.000  O
  O46      1.0000 0.24045  0.75871  0.74734  Biso   1.000  O
  O47      1.0000 0.75349  0.24567  0.36631  Biso   1.000  O
  O48      1.0000 0.24045  0.62670  0.87935  Biso   1.000  O
  O49      1.0000 0.75349  0.24567  0.74734  Biso   1.000  O
  O50      1.0000 0.24045  0.75871  0.36631  Biso   1.000  O
  O51      1.0000 0.62148  0.24567  0.87935  Biso   1.000  O
  O52      1.0000 0.24045  0.62670  0.36631  Biso   1.000  O
  O53      1.0000 0.24045  0.24567  0.87935  Biso   1.000  O
  O54      1.0000 0.62148  0.75871  0.36631  Biso   1.000  O
  O55      1.0000 0.24045  0.24567  0.74734  Biso   1.000  O
  O56      1.0000 0.75349  0.62670  0.36631  Biso   1.000  O
  O57      1.0000 0.82339  0.83120  0.22912  Biso   1.000  O
  O58      1.0000 0.76550  0.77331  0.28700  Biso   1.000  O
  O59      1.0000 0.10066  0.10848  0.95184  Biso   1.000  O
  O60      1.0000 0.15855  0.16636  0.89395  Biso   1.000  O
  O61      1.0000 0.82339  0.10848  0.95184  Biso   1.000  O
  O62      1.0000 0.76550  0.16636  0.89395  Biso   1.000  O
  O63      1.0000 0.10066  0.83120  0.22912  Biso   1.000  O
  O64      1.0000 0.15855  0.77331  0.28700  Biso   1.000  O
  O65      1.0000 0.10066  0.83120  0.95184  Biso   1.000  O
  O66      1.0000 0.15855  0.77331  0.89395  Biso   1.000  O
  O67      1.0000 0.82339  0.10848  0.22912  Biso   1.000  O
  O68      1.0000 0.76550  0.16636  0.28700  Biso   1.000  O
  O69      1.0000 0.60261  0.33055  0.45119  Biso   1.000  O
  O70      1.0000 0.66049  0.27266  0.39330  Biso   1.000  O
  O71      1.0000 0.32533  0.60783  0.72847  Biso   1.000  O
  O72      1.0000 0.26744  0.66571  0.78635  Biso   1.000  O
  O73      1.0000 0.60261  0.33055  0.72847  Biso   1.000  O
  O74      1.0000 0.66049  0.27266  0.78635  Biso   1.000  O
  O75      1.0000 0.32533  0.60783  0.45119  Biso   1.000  O
  O76      1.0000 0.26744  0.66571  0.39330  Biso   1.000  O
  O77      1.0000 0.32533  0.33055  0.72847  Biso   1.000  O
  O78      1.0000 0.26744  0.27266  0.78635  Biso   1.000  O
  O79      1.0000 0.60261  0.60783  0.45119  Biso   1.000  O
  O80      1.0000 0.66049  0.66571  0.39330  Biso   1.000  O
  O81      1.0000 0.96203  0.96984  0.09048  Biso   1.000  O
  O82      1.0000 0.46397  0.46919  0.58983  Biso   1.000  O
  O83      1.0000 0.90705  0.79195  0.20691  Biso   1.000  O
  O84      1.0000 0.07846  0.08627  0.03551  Biso   1.000  O
  O85      1.0000 0.78413  0.91487  0.20691  Biso   1.000  O
  O86      1.0000 0.07846  0.08627  0.91259  Biso   1.000  O
  O87      1.0000 0.78413  0.08627  0.03551  Biso   1.000  O
  O88      1.0000 0.07846  0.91487  0.20691  Biso   1.000  O
  O89      1.0000 0.90705  0.08627  0.91259  Biso   1.000  O
  O90      1.0000 0.07846  0.79195  0.20691  Biso   1.000  O
  O91      1.0000 0.07846  0.91487  0.91259  Biso   1.000  O
  O92      1.0000 0.90705  0.08627  0.20691  Biso   1.000  O
  O93      1.0000 0.07846  0.79195  0.03551  Biso   1.000  O
  O94      1.0000 0.78413  0.08627  0.20691  Biso   1.000  O
  O95      1.0000 0.51894  0.35276  0.47340  Biso   1.000  O
  O96      1.0000 0.34754  0.64708  0.64480  Biso   1.000  O
  O97      1.0000 0.64186  0.35276  0.47340  Biso   1.000  O
  O98      1.0000 0.34754  0.52416  0.76772  Biso   1.000  O
  O99      1.0000 0.64186  0.35276  0.64480  Biso   1.000  O
  O100     1.0000 0.34754  0.64708  0.47340  Biso   1.000  O
  O101     1.0000 0.51894  0.35276  0.76772  Biso   1.000  O
  O102     1.0000 0.34754  0.52416  0.47340  Biso   1.000  O
  O103     1.0000 0.34754  0.35276  0.76772  Biso   1.000  O
  O104     1.0000 0.51894  0.64708  0.47340  Biso   1.000  O
  O105     1.0000 0.34754  0.35276  0.64480  Biso   1.000  O
