data_image0
_cell_length_a       18.2359
_cell_length_b       18.2359
_cell_length_c       18.2359
_cell_angle_alpha    60
_cell_angle_beta     60
_cell_angle_gamma    60

_symmetry_space_group_name_H-M    "P 1"
_symmetry_int_tables_number       1

loop_
  _symmetry_equiv_pos_as_xyz
  'x, y, z'

loop_
  _atom_site_label
  _atom_site_occupancy
  _atom_site_fract_x
  _atom_site_fract_y
  _atom_site_fract_z
  _atom_site_thermal_displace_type
  _atom_site_B_iso_or_equiv
  _atom_site_type_symbol
  C1       1.0000 0.29356  0.29357  0.11930  Biso   1.000  C
  C2       1.0000 0.29356  0.29357  0.29357  Biso   1.000  C
  C3       1.0000 0.11929  0.29357  0.29357  Biso   1.000  C
  C4       1.0000 0.29356  0.11930  0.29357  Biso   1.000  C
  C5       1.0000 0.70644  0.70643  0.88070  Biso   1.000  C
  C6       1.0000 0.70644  0.70643  0.70643  Biso   1.000  C
  C7       1.0000 0.70644  0.88070  0.70643  Biso   1.000  C
  C8       1.0000 0.88071  0.70643  0.70643  Biso   1.000  C
  C9       1.0000 0.45600  0.45600  0.93640  Biso   1.000  C
  C10      1.0000 0.45600  0.45600  0.15160  Biso   1.000  C
  C11      1.0000 0.93640  0.15160  0.45600  Biso   1.000  C
  C12      1.0000 0.15160  0.93640  0.45600  Biso   1.000  C
  C13      1.0000 0.45600  0.93640  0.15160  Biso   1.000  C
  C14      1.0000 0.45600  0.15160  0.93640  Biso   1.000  C
  C15      1.0000 0.93640  0.45600  0.45600  Biso   1.000  C
  C16      1.0000 0.15160  0.45600  0.45600  Biso   1.000  C
  C17      1.0000 0.45600  0.15160  0.45600  Biso   1.000  C
  C18      1.0000 0.45600  0.93640  0.45600  Biso   1.000  C
  C19      1.0000 0.93640  0.45600  0.15160  Biso   1.000  C
  C20      1.0000 0.15160  0.45600  0.93640  Biso   1.000  C
  C21      1.0000 0.54400  0.54400  0.06360  Biso   1.000  C
  C22      1.0000 0.54400  0.54400  0.84840  Biso   1.000  C
  C23      1.0000 0.84840  0.06360  0.54400  Biso   1.000  C
  C24      1.0000 0.06360  0.84840  0.54400  Biso   1.000  C
  C25      1.0000 0.06360  0.54400  0.84840  Biso   1.000  C
  C26      1.0000 0.84840  0.54400  0.06360  Biso   1.000  C
  C27      1.0000 0.54400  0.06360  0.54400  Biso   1.000  C
  C28      1.0000 0.54400  0.84840  0.54400  Biso   1.000  C
  C29      1.0000 0.84840  0.54400  0.54400  Biso   1.000  C
  C30      1.0000 0.06360  0.54400  0.54400  Biso   1.000  C
  C31      1.0000 0.54400  0.06360  0.84840  Biso   1.000  C
  C32      1.0000 0.54400  0.84840  0.06360  Biso   1.000  C
  C33      1.0000 0.47360  0.47360  0.96320  Biso   1.000  C
  C34      1.0000 0.47360  0.47360  0.08960  Biso   1.000  C
  C35      1.0000 0.96320  0.08960  0.47360  Biso   1.000  C
  C36      1.0000 0.08960  0.96320  0.47360  Biso   1.000  C
  C37      1.0000 0.47360  0.96320  0.08960  Biso   1.000  C
  C38      1.0000 0.47360  0.08960  0.96320  Biso   1.000  C
  C39      1.0000 0.96320  0.47360  0.47360  Biso   1.000  C
  C40      1.0000 0.08960  0.47360  0.47360  Biso   1.000  C
  C41      1.0000 0.47360  0.08960  0.47360  Biso   1.000  C
  C42      1.0000 0.47360  0.96320  0.47360  Biso   1.000  C
  C43      1.0000 0.96320  0.47360  0.08960  Biso   1.000  C
  C44      1.0000 0.08960  0.47360  0.96320  Biso   1.000  C
  C45      1.0000 0.52640  0.52640  0.03680  Biso   1.000  C
  C46      1.0000 0.52640  0.52640  0.91040  Biso   1.000  C
  C47      1.0000 0.91040  0.03680  0.52640  Biso   1.000  C
  C48      1.0000 0.03680  0.91040  0.52640  Biso   1.000  C
  C49      1.0000 0.03680  0.52640  0.91040  Biso   1.000  C
  C50      1.0000 0.91040  0.52640  0.03680  Biso   1.000  C
  C51      1.0000 0.52640  0.03680  0.52640  Biso   1.000  C
  C52      1.0000 0.52640  0.91040  0.52640  Biso   1.000  C
  C53      1.0000 0.91040  0.52640  0.52640  Biso   1.000  C
  C54      1.0000 0.03680  0.52640  0.52640  Biso   1.000  C
  C55      1.0000 0.52640  0.03680  0.91040  Biso   1.000  C
  C56      1.0000 0.52640  0.91040  0.03680  Biso   1.000  C
  C57      1.0000 0.38860  0.38860  0.11140  Biso   1.000  C
  C58      1.0000 0.44630  0.44630  0.05370  Biso   1.000  C
  C59      1.0000 0.11140  0.11140  0.38860  Biso   1.000  C
  C60      1.0000 0.05370  0.05370  0.44630  Biso   1.000  C
  C61      1.0000 0.38860  0.11140  0.11140  Biso   1.000  C
  C62      1.0000 0.44630  0.05370  0.05370  Biso   1.000  C
  C63      1.0000 0.11140  0.38860  0.38860  Biso   1.000  C
  C64      1.0000 0.05370  0.44630  0.44630  Biso   1.000  C
  C65      1.0000 0.38860  0.11140  0.38860  Biso   1.000  C
  C66      1.0000 0.44630  0.05370  0.44630  Biso   1.000  C
  C67      1.0000 0.11140  0.38860  0.11140  Biso   1.000  C
  C68      1.0000 0.05370  0.44630  0.05370  Biso   1.000  C
  C69      1.0000 0.61140  0.61140  0.88860  Biso   1.000  C
  C70      1.0000 0.55370  0.55370  0.94630  Biso   1.000  C
  C71      1.0000 0.88860  0.88860  0.61140  Biso   1.000  C
  C72      1.0000 0.94630  0.94630  0.55370  Biso   1.000  C
  C73      1.0000 0.88860  0.61140  0.88860  Biso   1.000  C
  C74      1.0000 0.94630  0.55370  0.94630  Biso   1.000  C
  C75      1.0000 0.61140  0.88860  0.61140  Biso   1.000  C
  C76      1.0000 0.55370  0.94630  0.55370  Biso   1.000  C
  C77      1.0000 0.88860  0.61140  0.61140  Biso   1.000  C
  C78      1.0000 0.94630  0.55370  0.55370  Biso   1.000  C
  C79      1.0000 0.61140  0.88860  0.88860  Biso   1.000  C
  C80      1.0000 0.55370  0.94630  0.94630  Biso   1.000  C
  C81      1.0000 0.25000  0.25000  0.25000  Biso   1.000  C
  C82      1.0000 0.75000  0.75000  0.75000  Biso   1.000  C
  C83      1.0000 0.36605  0.36605  0.07323  Biso   1.000  C
  C84      1.0000 0.36605  0.36605  0.19467  Biso   1.000  C
  C85      1.0000 0.07323  0.19467  0.36605  Biso   1.000  C
  C86      1.0000 0.19467  0.07323  0.36605  Biso   1.000  C
  C87      1.0000 0.36605  0.07323  0.19467  Biso   1.000  C
  C88      1.0000 0.36605  0.19467  0.07323  Biso   1.000  C
  C89      1.0000 0.07323  0.36605  0.36605  Biso   1.000  C
  C90      1.0000 0.19467  0.36605  0.36605  Biso   1.000  C
  C91      1.0000 0.36605  0.19467  0.36605  Biso   1.000  C
  C92      1.0000 0.36605  0.07323  0.36605  Biso   1.000  C
  C93      1.0000 0.07323  0.36605  0.19467  Biso   1.000  C
  C94      1.0000 0.19467  0.36605  0.07323  Biso   1.000  C
  C95      1.0000 0.63395  0.63395  0.92677  Biso   1.000  C
  C96      1.0000 0.63395  0.63395  0.80533  Biso   1.000  C
  C97      1.0000 0.80533  0.92677  0.63395  Biso   1.000  C
  C98      1.0000 0.92677  0.80533  0.63395  Biso   1.000  C
  C99      1.0000 0.92677  0.63395  0.80533  Biso   1.000  C
  C100     1.0000 0.80533  0.63395  0.92677  Biso   1.000  C
  C101     1.0000 0.63395  0.92677  0.63395  Biso   1.000  C
  C102     1.0000 0.63395  0.80533  0.63395  Biso   1.000  C
  C103     1.0000 0.80533  0.63395  0.63395  Biso   1.000  C
  C104     1.0000 0.92677  0.63395  0.63395  Biso   1.000  C
  C105     1.0000 0.63395  0.92677  0.80533  Biso   1.000  C
  C106     1.0000 0.63395  0.80533  0.92677  Biso   1.000  C
  O1       1.0000 0.47825  0.34601  0.67161  Biso   1.000  O
  O2       1.0000 0.65260  0.34601  0.49726  Biso   1.000  O
  O3       1.0000 0.47825  0.34601  0.49726  Biso   1.000  O
  O4       1.0000 0.47825  0.52036  0.49726  Biso   1.000  O
  O5       1.0000 0.06956  0.93181  0.90872  Biso   1.000  O
  O6       1.0000 0.89521  0.93181  0.08307  Biso   1.000  O
  O7       1.0000 0.06956  0.75747  0.08307  Biso   1.000  O
  O8       1.0000 0.06956  0.93181  0.08307  Biso   1.000  O
  O9       1.0000 0.62006  0.18404  0.85377  Biso   1.000  O
  O10      1.0000 0.83751  0.18404  0.63632  Biso   1.000  O
  O11      1.0000 0.31903  0.48506  0.33529  Biso   1.000  O
  O12      1.0000 0.31903  0.70251  0.33529  Biso   1.000  O
  O13      1.0000 0.31903  0.70251  0.63632  Biso   1.000  O
  O14      1.0000 0.31903  0.48506  0.85377  Biso   1.000  O
  O15      1.0000 0.62006  0.18404  0.33529  Biso   1.000  O
  O16      1.0000 0.83751  0.18404  0.33529  Biso   1.000  O
  O17      1.0000 0.83751  0.48506  0.33529  Biso   1.000  O
  O18      1.0000 0.62006  0.70251  0.33529  Biso   1.000  O
  O19      1.0000 0.31903  0.18404  0.63631  Biso   1.000  O
  O20      1.0000 0.31903  0.18404  0.85377  Biso   1.000  O
  O21      1.0000 0.92776  0.09379  0.72656  Biso   1.000  O
  O22      1.0000 0.71030  0.09379  0.94401  Biso   1.000  O
  O23      1.0000 0.22878  0.57531  0.24504  Biso   1.000  O
  O24      1.0000 0.22878  0.79276  0.24504  Biso   1.000  O
  O25      1.0000 0.22878  0.09379  0.94401  Biso   1.000  O
  O26      1.0000 0.22878  0.09379  0.72656  Biso   1.000  O
  O27      1.0000 0.92776  0.57531  0.24504  Biso   1.000  O
  O28      1.0000 0.71030  0.79276  0.24504  Biso   1.000  O
  O29      1.0000 0.71030  0.09379  0.24504  Biso   1.000  O
  O30      1.0000 0.92776  0.09379  0.24504  Biso   1.000  O
  O31      1.0000 0.22878  0.57531  0.94401  Biso   1.000  O
  O32      1.0000 0.22878  0.79276  0.72656  Biso   1.000  O
  O33      1.0000 0.68359  0.16577  0.82677  Biso   1.000  O
  O34      1.0000 0.81051  0.16577  0.69985  Biso   1.000  O
  O35      1.0000 0.30076  0.54860  0.31702  Biso   1.000  O
  O36      1.0000 0.30076  0.67552  0.31702  Biso   1.000  O
  O37      1.0000 0.30076  0.67552  0.69985  Biso   1.000  O
  O38      1.0000 0.30076  0.54860  0.82677  Biso   1.000  O
  O39      1.0000 0.68359  0.16577  0.31702  Biso   1.000  O
  O40      1.0000 0.81051  0.16577  0.31702  Biso   1.000  O
  O41      1.0000 0.81051  0.54860  0.31702  Biso   1.000  O
  O42      1.0000 0.68359  0.67552  0.31702  Biso   1.000  O
  O43      1.0000 0.30076  0.16577  0.69985  Biso   1.000  O
  O44      1.0000 0.30076  0.16577  0.82677  Biso   1.000  O
  O45      1.0000 0.86422  0.11206  0.75356  Biso   1.000  O
  O46      1.0000 0.73730  0.11206  0.88048  Biso   1.000  O
  O47      1.0000 0.24705  0.60230  0.26331  Biso   1.000  O
  O48      1.0000 0.24705  0.72923  0.26331  Biso   1.000  O
  O49      1.0000 0.24705  0.11206  0.88048  Biso   1.000  O
  O50      1.0000 0.24705  0.11206  0.75356  Biso   1.000  O
  O51      1.0000 0.86422  0.60230  0.26331  Biso   1.000  O
  O52      1.0000 0.73730  0.72923  0.26331  Biso   1.000  O
  O53      1.0000 0.73730  0.11206  0.26331  Biso   1.000  O
  O54      1.0000 0.86422  0.11206  0.26331  Biso   1.000  O
  O55      1.0000 0.24705  0.60230  0.88048  Biso   1.000  O
  O56      1.0000 0.24705  0.72923  0.75356  Biso   1.000  O
  O57      1.0000 0.66062  0.25082  0.67963  Biso   1.000  O
  O58      1.0000 0.71877  0.19267  0.73778  Biso   1.000  O
  O59      1.0000 0.38306  0.52838  0.40207  Biso   1.000  O
  O60      1.0000 0.32491  0.58653  0.34392  Biso   1.000  O
  O61      1.0000 0.38306  0.52838  0.67963  Biso   1.000  O
  O62      1.0000 0.32491  0.58653  0.73778  Biso   1.000  O
  O63      1.0000 0.66062  0.25082  0.40207  Biso   1.000  O
  O64      1.0000 0.71877  0.19267  0.34392  Biso   1.000  O
  O65      1.0000 0.66062  0.52838  0.40207  Biso   1.000  O
  O66      1.0000 0.71877  0.58653  0.34392  Biso   1.000  O
  O67      1.0000 0.38306  0.25082  0.67963  Biso   1.000  O
  O68      1.0000 0.32491  0.19267  0.73778  Biso   1.000  O
  O69      1.0000 0.88719  0.02701  0.90070  Biso   1.000  O
  O70      1.0000 0.82904  0.08515  0.84255  Biso   1.000  O
  O71      1.0000 0.16475  0.74944  0.17826  Biso   1.000  O
  O72      1.0000 0.22290  0.69129  0.23641  Biso   1.000  O
  O73      1.0000 0.16475  0.02701  0.90070  Biso   1.000  O
  O74      1.0000 0.22290  0.08515  0.84255  Biso   1.000  O
  O75      1.0000 0.88719  0.74944  0.17826  Biso   1.000  O
  O76      1.0000 0.82904  0.69129  0.23641  Biso   1.000  O
  O77      1.0000 0.88719  0.02701  0.17826  Biso   1.000  O
  O78      1.0000 0.82904  0.08515  0.23641  Biso   1.000  O
  O79      1.0000 0.16475  0.74944  0.90070  Biso   1.000  O
  O80      1.0000 0.22290  0.69129  0.84255  Biso   1.000  O
  O81      1.0000 0.52184  0.38960  0.54085  Biso   1.000  O
  O82      1.0000 0.02597  0.88822  0.03948  Biso   1.000  O
  O83      1.0000 0.57721  0.27316  0.71836  Biso   1.000  O
  O84      1.0000 0.69935  0.27316  0.59622  Biso   1.000  O
  O85      1.0000 0.40540  0.44497  0.42441  Biso   1.000  O
  O86      1.0000 0.40540  0.56711  0.42441  Biso   1.000  O
  O87      1.0000 0.40540  0.56711  0.59622  Biso   1.000  O
  O88      1.0000 0.40540  0.44497  0.71836  Biso   1.000  O
  O89      1.0000 0.57721  0.27316  0.42441  Biso   1.000  O
  O90      1.0000 0.69935  0.27316  0.42441  Biso   1.000  O
  O91      1.0000 0.69935  0.44497  0.42441  Biso   1.000  O
  O92      1.0000 0.57721  0.56711  0.42441  Biso   1.000  O
  O93      1.0000 0.40540  0.27316  0.59623  Biso   1.000  O
  O94      1.0000 0.40540  0.27316  0.71836  Biso   1.000  O
  O95      1.0000 0.97060  0.00466  0.86197  Biso   1.000  O
  O96      1.0000 0.84846  0.00466  0.98410  Biso   1.000  O
  O97      1.0000 0.14241  0.71072  0.15592  Biso   1.000  O
  O98      1.0000 0.14241  0.83285  0.15592  Biso   1.000  O
  O99      1.0000 0.14241  0.00466  0.98410  Biso   1.000  O
  O100     1.0000 0.14241  0.00466  0.86197  Biso   1.000  O
  O101     1.0000 0.97060  0.71072  0.15592  Biso   1.000  O
  O102     1.0000 0.84846  0.83285  0.15592  Biso   1.000  O
  O103     1.0000 0.84846  0.00466  0.15592  Biso   1.000  O
  O104     1.0000 0.97060  0.00466  0.15592  Biso   1.000  O
  O105     1.0000 0.14241  0.71072  0.98410  Biso   1.000  O
