data_image0
_cell_length_a       18.2965
_cell_length_b       18.2965
_cell_length_c       18.2965
_cell_angle_alpha    60
_cell_angle_beta     60
_cell_angle_gamma    60

_symmetry_space_group_name_H-M    "P 1"
_symmetry_int_tables_number       1

loop_
  _symmetry_equiv_pos_as_xyz
  'x, y, z'

loop_
  _atom_site_label
  _atom_site_occupancy
  _atom_site_fract_x
  _atom_site_fract_y
  _atom_site_fract_z
  _atom_site_thermal_displace_type
  _atom_site_B_iso_or_equiv
  _atom_site_type_symbol
  C1       1.0000 0.29344  0.29343  0.11970  Biso   1.000  C
  C2       1.0000 0.29344  0.29343  0.29343  Biso   1.000  C
  C3       1.0000 0.11971  0.29343  0.29343  Biso   1.000  C
  C4       1.0000 0.29344  0.11970  0.29343  Biso   1.000  C
  C5       1.0000 0.70656  0.70657  0.88030  Biso   1.000  C
  C6       1.0000 0.70656  0.70657  0.70657  Biso   1.000  C
  C7       1.0000 0.70656  0.88030  0.70657  Biso   1.000  C
  C8       1.0000 0.88029  0.70657  0.70657  Biso   1.000  C
  C9       1.0000 0.45520  0.45520  0.93480  Biso   1.000  C
  C10      1.0000 0.45520  0.45520  0.15480  Biso   1.000  C
  C11      1.0000 0.93480  0.15480  0.45520  Biso   1.000  C
  C12      1.0000 0.15480  0.93480  0.45520  Biso   1.000  C
  C13      1.0000 0.45520  0.93480  0.15480  Biso   1.000  C
  C14      1.0000 0.45520  0.15480  0.93480  Biso   1.000  C
  C15      1.0000 0.93480  0.45520  0.45520  Biso   1.000  C
  C16      1.0000 0.15480  0.45520  0.45520  Biso   1.000  C
  C17      1.0000 0.45520  0.15480  0.45520  Biso   1.000  C
  C18      1.0000 0.45520  0.93480  0.45520  Biso   1.000  C
  C19      1.0000 0.93480  0.45520  0.15480  Biso   1.000  C
  C20      1.0000 0.15480  0.45520  0.93480  Biso   1.000  C
  C21      1.0000 0.54480  0.54480  0.06520  Biso   1.000  C
  C22      1.0000 0.54480  0.54480  0.84520  Biso   1.000  C
  C23      1.0000 0.84520  0.06520  0.54480  Biso   1.000  C
  C24      1.0000 0.06520  0.84520  0.54480  Biso   1.000  C
  C25      1.0000 0.06520  0.54480  0.84520  Biso   1.000  C
  C26      1.0000 0.84520  0.54480  0.06520  Biso   1.000  C
  C27      1.0000 0.54480  0.06520  0.54480  Biso   1.000  C
  C28      1.0000 0.54480  0.84520  0.54480  Biso   1.000  C
  C29      1.0000 0.84520  0.54480  0.54480  Biso   1.000  C
  C30      1.0000 0.06520  0.54480  0.54480  Biso   1.000  C
  C31      1.0000 0.54480  0.06520  0.84520  Biso   1.000  C
  C32      1.0000 0.54480  0.84520  0.06520  Biso   1.000  C
  C33      1.0000 0.47339  0.47339  0.96175  Biso   1.000  C
  C34      1.0000 0.47339  0.47339  0.09147  Biso   1.000  C
  C35      1.0000 0.96175  0.09147  0.47339  Biso   1.000  C
  C36      1.0000 0.09147  0.96175  0.47339  Biso   1.000  C
  C37      1.0000 0.47339  0.96175  0.09147  Biso   1.000  C
  C38      1.0000 0.47339  0.09147  0.96175  Biso   1.000  C
  C39      1.0000 0.96175  0.47339  0.47339  Biso   1.000  C
  C40      1.0000 0.09147  0.47339  0.47339  Biso   1.000  C
  C41      1.0000 0.47339  0.09147  0.47339  Biso   1.000  C
  C42      1.0000 0.47339  0.96175  0.47339  Biso   1.000  C
  C43      1.0000 0.96175  0.47339  0.09147  Biso   1.000  C
  C44      1.0000 0.09147  0.47339  0.96175  Biso   1.000  C
  C45      1.0000 0.52661  0.52661  0.03825  Biso   1.000  C
  C46      1.0000 0.52661  0.52661  0.90853  Biso   1.000  C
  C47      1.0000 0.90853  0.03825  0.52661  Biso   1.000  C
  C48      1.0000 0.03825  0.90853  0.52661  Biso   1.000  C
  C49      1.0000 0.03825  0.52661  0.90853  Biso   1.000  C
  C50      1.0000 0.90853  0.52661  0.03825  Biso   1.000  C
  C51      1.0000 0.52661  0.03825  0.52661  Biso   1.000  C
  C52      1.0000 0.52661  0.90853  0.52661  Biso   1.000  C
  C53      1.0000 0.90853  0.52661  0.52661  Biso   1.000  C
  C54      1.0000 0.03825  0.52661  0.52661  Biso   1.000  C
  C55      1.0000 0.52661  0.03825  0.90853  Biso   1.000  C
  C56      1.0000 0.52661  0.90853  0.03825  Biso   1.000  C
  C57      1.0000 0.38840  0.38840  0.11160  Biso   1.000  C
  C58      1.0000 0.44637  0.44637  0.05363  Biso   1.000  C
  C59      1.0000 0.11160  0.11160  0.38840  Biso   1.000  C
  C60      1.0000 0.05363  0.05363  0.44637  Biso   1.000  C
  C61      1.0000 0.38840  0.11160  0.11160  Biso   1.000  C
  C62      1.0000 0.44637  0.05363  0.05363  Biso   1.000  C
  C63      1.0000 0.11160  0.38840  0.38840  Biso   1.000  C
  C64      1.0000 0.05363  0.44637  0.44637  Biso   1.000  C
  C65      1.0000 0.38840  0.11160  0.38840  Biso   1.000  C
  C66      1.0000 0.44637  0.05363  0.44637  Biso   1.000  C
  C67      1.0000 0.11160  0.38840  0.11160  Biso   1.000  C
  C68      1.0000 0.05363  0.44637  0.05363  Biso   1.000  C
  C69      1.0000 0.61160  0.61160  0.88840  Biso   1.000  C
  C70      1.0000 0.55363  0.55363  0.94637  Biso   1.000  C
  C71      1.0000 0.88840  0.88840  0.61160  Biso   1.000  C
  C72      1.0000 0.94637  0.94637  0.55363  Biso   1.000  C
  C73      1.0000 0.88840  0.61160  0.88840  Biso   1.000  C
  C74      1.0000 0.94637  0.55363  0.94637  Biso   1.000  C
  C75      1.0000 0.61160  0.88840  0.61160  Biso   1.000  C
  C76      1.0000 0.55363  0.94637  0.55363  Biso   1.000  C
  C77      1.0000 0.88840  0.61160  0.61160  Biso   1.000  C
  C78      1.0000 0.94637  0.55363  0.55363  Biso   1.000  C
  C79      1.0000 0.61160  0.88840  0.88840  Biso   1.000  C
  C80      1.0000 0.55363  0.94637  0.94637  Biso   1.000  C
  C81      1.0000 0.25000  0.25000  0.25000  Biso   1.000  C
  C82      1.0000 0.75000  0.75000  0.75000  Biso   1.000  C
  C83      1.0000 0.36613  0.36613  0.07281  Biso   1.000  C
  C84      1.0000 0.36613  0.36613  0.19493  Biso   1.000  C
  C85      1.0000 0.07281  0.19493  0.36613  Biso   1.000  C
  C86      1.0000 0.19493  0.07281  0.36613  Biso   1.000  C
  C87      1.0000 0.36613  0.07281  0.19493  Biso   1.000  C
  C88      1.0000 0.36613  0.19493  0.07281  Biso   1.000  C
  C89      1.0000 0.07281  0.36613  0.36613  Biso   1.000  C
  C90      1.0000 0.19493  0.36613  0.36613  Biso   1.000  C
  C91      1.0000 0.36613  0.19493  0.36613  Biso   1.000  C
  C92      1.0000 0.36613  0.07281  0.36613  Biso   1.000  C
  C93      1.0000 0.07281  0.36613  0.19493  Biso   1.000  C
  C94      1.0000 0.19493  0.36613  0.07281  Biso   1.000  C
  C95      1.0000 0.63387  0.63387  0.92719  Biso   1.000  C
  C96      1.0000 0.63387  0.63387  0.80507  Biso   1.000  C
  C97      1.0000 0.80507  0.92719  0.63387  Biso   1.000  C
  C98      1.0000 0.92719  0.80507  0.63387  Biso   1.000  C
  C99      1.0000 0.92719  0.63387  0.80507  Biso   1.000  C
  C100     1.0000 0.80507  0.63387  0.92719  Biso   1.000  C
  C101     1.0000 0.63387  0.92719  0.63387  Biso   1.000  C
  C102     1.0000 0.63387  0.80507  0.63387  Biso   1.000  C
  C103     1.0000 0.80507  0.63387  0.63387  Biso   1.000  C
  C104     1.0000 0.92719  0.63387  0.63387  Biso   1.000  C
  C105     1.0000 0.63387  0.92719  0.80507  Biso   1.000  C
  C106     1.0000 0.63387  0.80507  0.92719  Biso   1.000  C
  O1       1.0000 0.00550  0.83892  0.13388  Biso   1.000  O
  O2       1.0000 0.00550  0.01274  0.13388  Biso   1.000  O
  O3       1.0000 0.83168  0.01274  0.13388  Biso   1.000  O
  O4       1.0000 0.00550  0.01274  0.96006  Biso   1.000  O
  O5       1.0000 0.41969  0.42547  0.54661  Biso   1.000  O
  O6       1.0000 0.41969  0.59929  0.54661  Biso   1.000  O
  O7       1.0000 0.59350  0.42547  0.54661  Biso   1.000  O
  O8       1.0000 0.41969  0.42547  0.72043  Biso   1.000  O
  O9       1.0000 0.86788  0.65336  0.29547  Biso   1.000  O
  O10      1.0000 0.16710  0.17433  0.99626  Biso   1.000  O
  O11      1.0000 0.64612  0.87512  0.29547  Biso   1.000  O
  O12      1.0000 0.16710  0.17433  0.77450  Biso   1.000  O
  O13      1.0000 0.64612  0.17433  0.99626  Biso   1.000  O
  O14      1.0000 0.16710  0.87512  0.29547  Biso   1.000  O
  O15      1.0000 0.86788  0.17433  0.77450  Biso   1.000  O
  O16      1.0000 0.16710  0.65336  0.29547  Biso   1.000  O
  O17      1.0000 0.16710  0.87512  0.77450  Biso   1.000  O
  O18      1.0000 0.86788  0.17433  0.29547  Biso   1.000  O
  O19      1.0000 0.16710  0.65336  0.99626  Biso   1.000  O
  O20      1.0000 0.64612  0.17433  0.29547  Biso   1.000  O
  O21      1.0000 0.55731  0.26387  0.38501  Biso   1.000  O
  O22      1.0000 0.25809  0.78485  0.68423  Biso   1.000  O
  O23      1.0000 0.77907  0.26387  0.38501  Biso   1.000  O
  O24      1.0000 0.25809  0.56309  0.90599  Biso   1.000  O
  O25      1.0000 0.77907  0.26387  0.68423  Biso   1.000  O
  O26      1.0000 0.25809  0.78485  0.38501  Biso   1.000  O
  O27      1.0000 0.55731  0.26387  0.90599  Biso   1.000  O
  O28      1.0000 0.25809  0.56309  0.38501  Biso   1.000  O
  O29      1.0000 0.25809  0.26387  0.90599  Biso   1.000  O
  O30      1.0000 0.55731  0.78485  0.38501  Biso   1.000  O
  O31      1.0000 0.25809  0.26387  0.68423  Biso   1.000  O
  O32      1.0000 0.77907  0.56309  0.38501  Biso   1.000  O
  O33      1.0000 0.80462  0.67993  0.31382  Biso   1.000  O
  O34      1.0000 0.18544  0.19268  0.93300  Biso   1.000  O
  O35      1.0000 0.67269  0.81186  0.31382  Biso   1.000  O
  O36      1.0000 0.18544  0.19268  0.80107  Biso   1.000  O
  O37      1.0000 0.67269  0.19268  0.93300  Biso   1.000  O
  O38      1.0000 0.18544  0.81186  0.31382  Biso   1.000  O
  O39      1.0000 0.80462  0.19268  0.80107  Biso   1.000  O
  O40      1.0000 0.18544  0.67993  0.31382  Biso   1.000  O
  O41      1.0000 0.18544  0.81186  0.80107  Biso   1.000  O
  O42      1.0000 0.80462  0.19268  0.31382  Biso   1.000  O
  O43      1.0000 0.18544  0.67993  0.93300  Biso   1.000  O
  O44      1.0000 0.67269  0.19268  0.31382  Biso   1.000  O
  O45      1.0000 0.62056  0.24553  0.36667  Biso   1.000  O
  O46      1.0000 0.23974  0.75828  0.74749  Biso   1.000  O
  O47      1.0000 0.75250  0.24553  0.36667  Biso   1.000  O
  O48      1.0000 0.23974  0.62635  0.87942  Biso   1.000  O
  O49      1.0000 0.75250  0.24553  0.74749  Biso   1.000  O
  O50      1.0000 0.23974  0.75828  0.36667  Biso   1.000  O
  O51      1.0000 0.62056  0.24553  0.87942  Biso   1.000  O
  O52      1.0000 0.23974  0.62635  0.36667  Biso   1.000  O
  O53      1.0000 0.23974  0.24553  0.87942  Biso   1.000  O
  O54      1.0000 0.62056  0.75828  0.36667  Biso   1.000  O
  O55      1.0000 0.23974  0.24553  0.74749  Biso   1.000  O
  O56      1.0000 0.75250  0.62635  0.36667  Biso   1.000  O
  O57      1.0000 0.82349  0.83072  0.22899  Biso   1.000  O
  O58      1.0000 0.76563  0.77287  0.28684  Biso   1.000  O
  O59      1.0000 0.10061  0.10785  0.95187  Biso   1.000  O
  O60      1.0000 0.15846  0.16570  0.89401  Biso   1.000  O
  O61      1.0000 0.82349  0.10785  0.95187  Biso   1.000  O
  O62      1.0000 0.76563  0.16570  0.89401  Biso   1.000  O
  O63      1.0000 0.10061  0.83072  0.22899  Biso   1.000  O
  O64      1.0000 0.15846  0.77287  0.28684  Biso   1.000  O
  O65      1.0000 0.10061  0.83072  0.95187  Biso   1.000  O
  O66      1.0000 0.15846  0.77287  0.89401  Biso   1.000  O
  O67      1.0000 0.82349  0.10785  0.22899  Biso   1.000  O
  O68      1.0000 0.76563  0.16570  0.28684  Biso   1.000  O
  O69      1.0000 0.60170  0.33036  0.45150  Biso   1.000  O
  O70      1.0000 0.65955  0.27251  0.39365  Biso   1.000  O
  O71      1.0000 0.32458  0.60748  0.72862  Biso   1.000  O
  O72      1.0000 0.26672  0.66533  0.78648  Biso   1.000  O
  O73      1.0000 0.60170  0.33036  0.72862  Biso   1.000  O
  O74      1.0000 0.65955  0.27251  0.78648  Biso   1.000  O
  O75      1.0000 0.32458  0.60748  0.45150  Biso   1.000  O
  O76      1.0000 0.26672  0.66533  0.39365  Biso   1.000  O
  O77      1.0000 0.32458  0.33036  0.72862  Biso   1.000  O
  O78      1.0000 0.26672  0.27251  0.78648  Biso   1.000  O
  O79      1.0000 0.60170  0.60748  0.45150  Biso   1.000  O
  O80      1.0000 0.65955  0.66533  0.39365  Biso   1.000  O
  O81      1.0000 0.96205  0.96929  0.09043  Biso   1.000  O
  O82      1.0000 0.46314  0.46892  0.59006  Biso   1.000  O
  O83      1.0000 0.90711  0.79150  0.20679  Biso   1.000  O
  O84      1.0000 0.07841  0.08565  0.03549  Biso   1.000  O
  O85      1.0000 0.78426  0.91435  0.20679  Biso   1.000  O
  O86      1.0000 0.07841  0.08565  0.91264  Biso   1.000  O
  O87      1.0000 0.78426  0.08565  0.03549  Biso   1.000  O
  O88      1.0000 0.07841  0.91435  0.20679  Biso   1.000  O
  O89      1.0000 0.90711  0.08565  0.91264  Biso   1.000  O
  O90      1.0000 0.07841  0.79150  0.20679  Biso   1.000  O
  O91      1.0000 0.07841  0.91435  0.91264  Biso   1.000  O
  O92      1.0000 0.90711  0.08565  0.20679  Biso   1.000  O
  O93      1.0000 0.07841  0.79150  0.03549  Biso   1.000  O
  O94      1.0000 0.78426  0.08565  0.20679  Biso   1.000  O
  O95      1.0000 0.51808  0.35256  0.47370  Biso   1.000  O
  O96      1.0000 0.34677  0.64671  0.64500  Biso   1.000  O
  O97      1.0000 0.64093  0.35256  0.47370  Biso   1.000  O
  O98      1.0000 0.34677  0.52386  0.76785  Biso   1.000  O
  O99      1.0000 0.64093  0.35256  0.64500  Biso   1.000  O
  O100     1.0000 0.34677  0.64671  0.47370  Biso   1.000  O
  O101     1.0000 0.51808  0.35256  0.76785  Biso   1.000  O
  O102     1.0000 0.34677  0.52386  0.47370  Biso   1.000  O
  O103     1.0000 0.34677  0.35256  0.76785  Biso   1.000  O
  O104     1.0000 0.51808  0.64671  0.47370  Biso   1.000  O
  O105     1.0000 0.34677  0.35256  0.64500  Biso   1.000  O
