data_image0
_cell_length_a       18.2115
_cell_length_b       18.2115
_cell_length_c       18.2115
_cell_angle_alpha    60
_cell_angle_beta     60
_cell_angle_gamma    60

_symmetry_space_group_name_H-M    "P 1"
_symmetry_int_tables_number       1

loop_
  _symmetry_equiv_pos_as_xyz
  'x, y, z'

loop_
  _atom_site_label
  _atom_site_occupancy
  _atom_site_fract_x
  _atom_site_fract_y
  _atom_site_fract_z
  _atom_site_thermal_displace_type
  _atom_site_B_iso_or_equiv
  _atom_site_type_symbol
  C1       1.0000 0.29361  0.29361  0.11917  Biso   1.000  C
  C2       1.0000 0.29361  0.29361  0.29361  Biso   1.000  C
  C3       1.0000 0.11917  0.29361  0.29361  Biso   1.000  C
  C4       1.0000 0.29361  0.11917  0.29361  Biso   1.000  C
  C5       1.0000 0.70639  0.70639  0.88083  Biso   1.000  C
  C6       1.0000 0.70639  0.70639  0.70639  Biso   1.000  C
  C7       1.0000 0.70639  0.88083  0.70639  Biso   1.000  C
  C8       1.0000 0.88083  0.70639  0.70639  Biso   1.000  C
  C9       1.0000 0.45530  0.45530  0.93770  Biso   1.000  C
  C10      1.0000 0.45530  0.45530  0.15170  Biso   1.000  C
  C11      1.0000 0.93770  0.15170  0.45530  Biso   1.000  C
  C12      1.0000 0.15170  0.93770  0.45530  Biso   1.000  C
  C13      1.0000 0.45530  0.93770  0.15170  Biso   1.000  C
  C14      1.0000 0.45530  0.15170  0.93770  Biso   1.000  C
  C15      1.0000 0.93770  0.45530  0.45530  Biso   1.000  C
  C16      1.0000 0.15170  0.45530  0.45530  Biso   1.000  C
  C17      1.0000 0.45530  0.15170  0.45530  Biso   1.000  C
  C18      1.0000 0.45530  0.93770  0.45530  Biso   1.000  C
  C19      1.0000 0.93770  0.45530  0.15170  Biso   1.000  C
  C20      1.0000 0.15170  0.45530  0.93770  Biso   1.000  C
  C21      1.0000 0.54470  0.54470  0.06230  Biso   1.000  C
  C22      1.0000 0.54470  0.54470  0.84830  Biso   1.000  C
  C23      1.0000 0.84830  0.06230  0.54470  Biso   1.000  C
  C24      1.0000 0.06230  0.84830  0.54470  Biso   1.000  C
  C25      1.0000 0.06230  0.54470  0.84830  Biso   1.000  C
  C26      1.0000 0.84830  0.54470  0.06230  Biso   1.000  C
  C27      1.0000 0.54470  0.06230  0.54470  Biso   1.000  C
  C28      1.0000 0.54470  0.84830  0.54470  Biso   1.000  C
  C29      1.0000 0.84830  0.54470  0.54470  Biso   1.000  C
  C30      1.0000 0.06230  0.54470  0.54470  Biso   1.000  C
  C31      1.0000 0.54470  0.06230  0.84830  Biso   1.000  C
  C32      1.0000 0.54470  0.84830  0.06230  Biso   1.000  C
  C33      1.0000 0.47300  0.47300  0.96450  Biso   1.000  C
  C34      1.0000 0.47300  0.47300  0.08950  Biso   1.000  C
  C35      1.0000 0.96450  0.08950  0.47300  Biso   1.000  C
  C36      1.0000 0.08950  0.96450  0.47300  Biso   1.000  C
  C37      1.0000 0.47300  0.96450  0.08950  Biso   1.000  C
  C38      1.0000 0.47300  0.08950  0.96450  Biso   1.000  C
  C39      1.0000 0.96450  0.47300  0.47300  Biso   1.000  C
  C40      1.0000 0.08950  0.47300  0.47300  Biso   1.000  C
  C41      1.0000 0.47300  0.08950  0.47300  Biso   1.000  C
  C42      1.0000 0.47300  0.96450  0.47300  Biso   1.000  C
  C43      1.0000 0.96450  0.47300  0.08950  Biso   1.000  C
  C44      1.0000 0.08950  0.47300  0.96450  Biso   1.000  C
  C45      1.0000 0.52700  0.52700  0.03550  Biso   1.000  C
  C46      1.0000 0.52700  0.52700  0.91050  Biso   1.000  C
  C47      1.0000 0.91050  0.03550  0.52700  Biso   1.000  C
  C48      1.0000 0.03550  0.91050  0.52700  Biso   1.000  C
  C49      1.0000 0.03550  0.52700  0.91050  Biso   1.000  C
  C50      1.0000 0.91050  0.52700  0.03550  Biso   1.000  C
  C51      1.0000 0.52700  0.03550  0.52700  Biso   1.000  C
  C52      1.0000 0.52700  0.91050  0.52700  Biso   1.000  C
  C53      1.0000 0.91050  0.52700  0.52700  Biso   1.000  C
  C54      1.0000 0.03550  0.52700  0.52700  Biso   1.000  C
  C55      1.0000 0.52700  0.03550  0.91050  Biso   1.000  C
  C56      1.0000 0.52700  0.91050  0.03550  Biso   1.000  C
  C57      1.0000 0.38860  0.38860  0.11140  Biso   1.000  C
  C58      1.0000 0.44600  0.44600  0.05400  Biso   1.000  C
  C59      1.0000 0.11140  0.11140  0.38860  Biso   1.000  C
  C60      1.0000 0.05400  0.05400  0.44600  Biso   1.000  C
  C61      1.0000 0.38860  0.11140  0.11140  Biso   1.000  C
  C62      1.0000 0.44600  0.05400  0.05400  Biso   1.000  C
  C63      1.0000 0.11140  0.38860  0.38860  Biso   1.000  C
  C64      1.0000 0.05400  0.44600  0.44600  Biso   1.000  C
  C65      1.0000 0.38860  0.11140  0.38860  Biso   1.000  C
  C66      1.0000 0.44600  0.05400  0.44600  Biso   1.000  C
  C67      1.0000 0.11140  0.38860  0.11140  Biso   1.000  C
  C68      1.0000 0.05400  0.44600  0.05400  Biso   1.000  C
  C69      1.0000 0.61140  0.61140  0.88860  Biso   1.000  C
  C70      1.0000 0.55400  0.55400  0.94600  Biso   1.000  C
  C71      1.0000 0.88860  0.88860  0.61140  Biso   1.000  C
  C72      1.0000 0.94600  0.94600  0.55400  Biso   1.000  C
  C73      1.0000 0.88860  0.61140  0.88860  Biso   1.000  C
  C74      1.0000 0.94600  0.55400  0.94600  Biso   1.000  C
  C75      1.0000 0.61140  0.88860  0.61140  Biso   1.000  C
  C76      1.0000 0.55400  0.94600  0.55400  Biso   1.000  C
  C77      1.0000 0.88860  0.61140  0.61140  Biso   1.000  C
  C78      1.0000 0.94600  0.55400  0.55400  Biso   1.000  C
  C79      1.0000 0.61140  0.88860  0.88860  Biso   1.000  C
  C80      1.0000 0.55400  0.94600  0.94600  Biso   1.000  C
  C81      1.0000 0.25000  0.25000  0.25000  Biso   1.000  C
  C82      1.0000 0.75000  0.75000  0.75000  Biso   1.000  C
  C83      1.0000 0.36611  0.36611  0.07317  Biso   1.000  C
  C84      1.0000 0.36611  0.36611  0.19461  Biso   1.000  C
  C85      1.0000 0.07317  0.19461  0.36611  Biso   1.000  C
  C86      1.0000 0.19461  0.07317  0.36611  Biso   1.000  C
  C87      1.0000 0.36611  0.07317  0.19461  Biso   1.000  C
  C88      1.0000 0.36611  0.19461  0.07317  Biso   1.000  C
  C89      1.0000 0.07317  0.36611  0.36611  Biso   1.000  C
  C90      1.0000 0.19461  0.36611  0.36611  Biso   1.000  C
  C91      1.0000 0.36611  0.19461  0.36611  Biso   1.000  C
  C92      1.0000 0.36611  0.07317  0.36611  Biso   1.000  C
  C93      1.0000 0.07317  0.36611  0.19461  Biso   1.000  C
  C94      1.0000 0.19461  0.36611  0.07317  Biso   1.000  C
  C95      1.0000 0.63389  0.63389  0.92683  Biso   1.000  C
  C96      1.0000 0.63389  0.63389  0.80539  Biso   1.000  C
  C97      1.0000 0.80539  0.92683  0.63389  Biso   1.000  C
  C98      1.0000 0.92683  0.80539  0.63389  Biso   1.000  C
  C99      1.0000 0.92683  0.63389  0.80539  Biso   1.000  C
  C100     1.0000 0.80539  0.63389  0.92683  Biso   1.000  C
  C101     1.0000 0.63389  0.92683  0.63389  Biso   1.000  C
  C102     1.0000 0.63389  0.80539  0.63389  Biso   1.000  C
  C103     1.0000 0.80539  0.63389  0.63389  Biso   1.000  C
  C104     1.0000 0.92683  0.63389  0.63389  Biso   1.000  C
  C105     1.0000 0.63389  0.92683  0.80539  Biso   1.000  C
  C106     1.0000 0.63389  0.80539  0.92683  Biso   1.000  C
  O1       1.0000 0.47889  0.34647  0.67251  Biso   1.000  O
  O2       1.0000 0.65340  0.34647  0.49801  Biso   1.000  O
  O3       1.0000 0.47889  0.34647  0.49801  Biso   1.000  O
  O4       1.0000 0.47889  0.52098  0.49801  Biso   1.000  O
  O5       1.0000 0.06937  0.93265  0.90967  Biso   1.000  O
  O6       1.0000 0.89486  0.93265  0.08418  Biso   1.000  O
  O7       1.0000 0.06937  0.75814  0.08418  Biso   1.000  O
  O8       1.0000 0.06937  0.93265  0.08418  Biso   1.000  O
  O9       1.0000 0.62268  0.18386  0.85395  Biso   1.000  O
  O10      1.0000 0.83699  0.18386  0.63964  Biso   1.000  O
  O11      1.0000 0.31843  0.48811  0.33539  Biso   1.000  O
  O12      1.0000 0.31843  0.70242  0.33539  Biso   1.000  O
  O13      1.0000 0.31843  0.70242  0.63964  Biso   1.000  O
  O14      1.0000 0.31843  0.48811  0.85395  Biso   1.000  O
  O15      1.0000 0.62268  0.18386  0.33539  Biso   1.000  O
  O16      1.0000 0.83699  0.18386  0.33539  Biso   1.000  O
  O17      1.0000 0.83699  0.48811  0.33539  Biso   1.000  O
  O18      1.0000 0.62268  0.70242  0.33539  Biso   1.000  O
  O19      1.0000 0.31843  0.18386  0.63964  Biso   1.000  O
  O20      1.0000 0.31843  0.18386  0.85395  Biso   1.000  O
  O21      1.0000 0.92558  0.09526  0.72823  Biso   1.000  O
  O22      1.0000 0.71127  0.09526  0.94254  Biso   1.000  O
  O23      1.0000 0.22984  0.57670  0.24680  Biso   1.000  O
  O24      1.0000 0.22984  0.79101  0.24680  Biso   1.000  O
  O25      1.0000 0.22984  0.09526  0.94254  Biso   1.000  O
  O26      1.0000 0.22984  0.09526  0.72823  Biso   1.000  O
  O27      1.0000 0.92558  0.57670  0.24680  Biso   1.000  O
  O28      1.0000 0.71127  0.79101  0.24680  Biso   1.000  O
  O29      1.0000 0.71127  0.09527  0.24680  Biso   1.000  O
  O30      1.0000 0.92558  0.09527  0.24680  Biso   1.000  O
  O31      1.0000 0.22984  0.57670  0.94254  Biso   1.000  O
  O32      1.0000 0.22984  0.79101  0.72823  Biso   1.000  O
  O33      1.0000 0.68496  0.16613  0.82713  Biso   1.000  O
  O34      1.0000 0.81016  0.16613  0.70192  Biso   1.000  O
  O35      1.0000 0.30070  0.55039  0.31766  Biso   1.000  O
  O36      1.0000 0.30070  0.67559  0.31766  Biso   1.000  O
  O37      1.0000 0.30070  0.67559  0.70192  Biso   1.000  O
  O38      1.0000 0.30070  0.55039  0.82713  Biso   1.000  O
  O39      1.0000 0.68496  0.16613  0.31766  Biso   1.000  O
  O40      1.0000 0.81016  0.16613  0.31766  Biso   1.000  O
  O41      1.0000 0.81016  0.55039  0.31766  Biso   1.000  O
  O42      1.0000 0.68496  0.67559  0.31766  Biso   1.000  O
  O43      1.0000 0.30070  0.16613  0.70192  Biso   1.000  O
  O44      1.0000 0.30070  0.16613  0.82713  Biso   1.000  O
  O45      1.0000 0.86330  0.11299  0.75506  Biso   1.000  O
  O46      1.0000 0.73810  0.11299  0.88026  Biso   1.000  O
  O47      1.0000 0.24756  0.60353  0.26453  Biso   1.000  O
  O48      1.0000 0.24756  0.72873  0.26453  Biso   1.000  O
  O49      1.0000 0.24756  0.11299  0.88026  Biso   1.000  O
  O50      1.0000 0.24756  0.11299  0.75506  Biso   1.000  O
  O51      1.0000 0.86330  0.60353  0.26453  Biso   1.000  O
  O52      1.0000 0.73810  0.72873  0.26453  Biso   1.000  O
  O53      1.0000 0.73810  0.11299  0.26453  Biso   1.000  O
  O54      1.0000 0.86330  0.11299  0.26453  Biso   1.000  O
  O55      1.0000 0.24756  0.60353  0.88026  Biso   1.000  O
  O56      1.0000 0.24756  0.72873  0.75506  Biso   1.000  O
  O57      1.0000 0.66141  0.25121  0.68052  Biso   1.000  O
  O58      1.0000 0.71924  0.19338  0.73835  Biso   1.000  O
  O59      1.0000 0.38363  0.52899  0.40274  Biso   1.000  O
  O60      1.0000 0.32579  0.58682  0.34491  Biso   1.000  O
  O61      1.0000 0.38363  0.52899  0.68052  Biso   1.000  O
  O62      1.0000 0.32579  0.58682  0.73835  Biso   1.000  O
  O63      1.0000 0.66141  0.25121  0.40274  Biso   1.000  O
  O64      1.0000 0.71924  0.19338  0.34491  Biso   1.000  O
  O65      1.0000 0.66141  0.52899  0.40274  Biso   1.000  O
  O66      1.0000 0.71924  0.58682  0.34491  Biso   1.000  O
  O67      1.0000 0.38363  0.25121  0.68052  Biso   1.000  O
  O68      1.0000 0.32579  0.19338  0.73835  Biso   1.000  O
  O69      1.0000 0.88686  0.02791  0.90167  Biso   1.000  O
  O70      1.0000 0.82902  0.08574  0.84383  Biso   1.000  O
  O71      1.0000 0.16463  0.75013  0.17944  Biso   1.000  O
  O72      1.0000 0.22247  0.69230  0.23728  Biso   1.000  O
  O73      1.0000 0.16463  0.02791  0.90167  Biso   1.000  O
  O74      1.0000 0.22247  0.08574  0.84383  Biso   1.000  O
  O75      1.0000 0.88686  0.75013  0.17944  Biso   1.000  O
  O76      1.0000 0.82902  0.69230  0.23728  Biso   1.000  O
  O77      1.0000 0.88686  0.02791  0.17944  Biso   1.000  O
  O78      1.0000 0.82902  0.08574  0.23728  Biso   1.000  O
  O79      1.0000 0.16463  0.75013  0.90167  Biso   1.000  O
  O80      1.0000 0.22247  0.69230  0.84383  Biso   1.000  O
  O81      1.0000 0.52252  0.39010  0.54163  Biso   1.000  O
  O82      1.0000 0.02575  0.88902  0.04055  Biso   1.000  O
  O83      1.0000 0.57795  0.27380  0.71880  Biso   1.000  O
  O84      1.0000 0.69969  0.27380  0.59706  Biso   1.000  O
  O85      1.0000 0.40622  0.44553  0.42533  Biso   1.000  O
  O86      1.0000 0.40622  0.56727  0.42533  Biso   1.000  O
  O87      1.0000 0.40622  0.56727  0.59706  Biso   1.000  O
  O88      1.0000 0.40622  0.44553  0.71880  Biso   1.000  O
  O89      1.0000 0.57795  0.27380  0.42533  Biso   1.000  O
  O90      1.0000 0.69969  0.27380  0.42533  Biso   1.000  O
  O91      1.0000 0.69969  0.44553  0.42533  Biso   1.000  O
  O92      1.0000 0.57795  0.56727  0.42533  Biso   1.000  O
  O93      1.0000 0.40622  0.27380  0.59706  Biso   1.000  O
  O94      1.0000 0.40622  0.27380  0.71880  Biso   1.000  O
  O95      1.0000 0.97032  0.00532  0.86338  Biso   1.000  O
  O96      1.0000 0.84858  0.00532  0.98513  Biso   1.000  O
  O97      1.0000 0.14205  0.71185  0.15685  Biso   1.000  O
  O98      1.0000 0.14205  0.83359  0.15685  Biso   1.000  O
  O99      1.0000 0.14205  0.00532  0.98513  Biso   1.000  O
  O100     1.0000 0.14205  0.00532  0.86338  Biso   1.000  O
  O101     1.0000 0.97032  0.71185  0.15685  Biso   1.000  O
  O102     1.0000 0.84858  0.83359  0.15685  Biso   1.000  O
  O103     1.0000 0.84858  0.00532  0.15685  Biso   1.000  O
  O104     1.0000 0.97032  0.00532  0.15685  Biso   1.000  O
  O105     1.0000 0.14205  0.71185  0.98513  Biso   1.000  O
