data_image0
_cell_length_a       18.2704
_cell_length_b       18.2704
_cell_length_c       18.2704
_cell_angle_alpha    60
_cell_angle_beta     60
_cell_angle_gamma    60

_symmetry_space_group_name_H-M    "P 1"
_symmetry_int_tables_number       1

loop_
  _symmetry_equiv_pos_as_xyz
  'x, y, z'

loop_
  _atom_site_label
  _atom_site_occupancy
  _atom_site_fract_x
  _atom_site_fract_y
  _atom_site_fract_z
  _atom_site_thermal_displace_type
  _atom_site_B_iso_or_equiv
  _atom_site_type_symbol
  C1       1.0000 0.29350  0.29349  0.11952  Biso   1.000  C
  C2       1.0000 0.29350  0.29349  0.29349  Biso   1.000  C
  C3       1.0000 0.11953  0.29349  0.29349  Biso   1.000  C
  C4       1.0000 0.29350  0.11952  0.29349  Biso   1.000  C
  C5       1.0000 0.70650  0.70651  0.88048  Biso   1.000  C
  C6       1.0000 0.70650  0.70651  0.70651  Biso   1.000  C
  C7       1.0000 0.70650  0.88048  0.70651  Biso   1.000  C
  C8       1.0000 0.88047  0.70651  0.70651  Biso   1.000  C
  C9       1.0000 0.45540  0.45540  0.93560  Biso   1.000  C
  C10      1.0000 0.45540  0.45540  0.15360  Biso   1.000  C
  C11      1.0000 0.93560  0.15360  0.45540  Biso   1.000  C
  C12      1.0000 0.15360  0.93560  0.45540  Biso   1.000  C
  C13      1.0000 0.45540  0.93560  0.15360  Biso   1.000  C
  C14      1.0000 0.45540  0.15360  0.93560  Biso   1.000  C
  C15      1.0000 0.93560  0.45540  0.45540  Biso   1.000  C
  C16      1.0000 0.15360  0.45540  0.45540  Biso   1.000  C
  C17      1.0000 0.45540  0.15360  0.45540  Biso   1.000  C
  C18      1.0000 0.45540  0.93560  0.45540  Biso   1.000  C
  C19      1.0000 0.93560  0.45540  0.15360  Biso   1.000  C
  C20      1.0000 0.15360  0.45540  0.93560  Biso   1.000  C
  C21      1.0000 0.54460  0.54460  0.06440  Biso   1.000  C
  C22      1.0000 0.54460  0.54460  0.84640  Biso   1.000  C
  C23      1.0000 0.84640  0.06440  0.54460  Biso   1.000  C
  C24      1.0000 0.06440  0.84640  0.54460  Biso   1.000  C
  C25      1.0000 0.06440  0.54460  0.84640  Biso   1.000  C
  C26      1.0000 0.84640  0.54460  0.06440  Biso   1.000  C
  C27      1.0000 0.54460  0.06440  0.54460  Biso   1.000  C
  C28      1.0000 0.54460  0.84640  0.54460  Biso   1.000  C
  C29      1.0000 0.84640  0.54460  0.54460  Biso   1.000  C
  C30      1.0000 0.06440  0.54460  0.54460  Biso   1.000  C
  C31      1.0000 0.54460  0.06440  0.84640  Biso   1.000  C
  C32      1.0000 0.54460  0.84640  0.06440  Biso   1.000  C
  C33      1.0000 0.47338  0.47338  0.96238  Biso   1.000  C
  C34      1.0000 0.47338  0.47338  0.09086  Biso   1.000  C
  C35      1.0000 0.96238  0.09086  0.47338  Biso   1.000  C
  C36      1.0000 0.09086  0.96238  0.47338  Biso   1.000  C
  C37      1.0000 0.47338  0.96238  0.09086  Biso   1.000  C
  C38      1.0000 0.47338  0.09086  0.96238  Biso   1.000  C
  C39      1.0000 0.96238  0.47338  0.47338  Biso   1.000  C
  C40      1.0000 0.09086  0.47338  0.47338  Biso   1.000  C
  C41      1.0000 0.47338  0.09086  0.47338  Biso   1.000  C
  C42      1.0000 0.47338  0.96238  0.47338  Biso   1.000  C
  C43      1.0000 0.96238  0.47338  0.09086  Biso   1.000  C
  C44      1.0000 0.09086  0.47338  0.96238  Biso   1.000  C
  C45      1.0000 0.52662  0.52662  0.03762  Biso   1.000  C
  C46      1.0000 0.52662  0.52662  0.90914  Biso   1.000  C
  C47      1.0000 0.90914  0.03762  0.52662  Biso   1.000  C
  C48      1.0000 0.03762  0.90914  0.52662  Biso   1.000  C
  C49      1.0000 0.03762  0.52662  0.90914  Biso   1.000  C
  C50      1.0000 0.90914  0.52662  0.03762  Biso   1.000  C
  C51      1.0000 0.52662  0.03762  0.52662  Biso   1.000  C
  C52      1.0000 0.52662  0.90914  0.52662  Biso   1.000  C
  C53      1.0000 0.90914  0.52662  0.52662  Biso   1.000  C
  C54      1.0000 0.03762  0.52662  0.52662  Biso   1.000  C
  C55      1.0000 0.52662  0.03762  0.90914  Biso   1.000  C
  C56      1.0000 0.52662  0.90914  0.03762  Biso   1.000  C
  C57      1.0000 0.38861  0.38861  0.11139  Biso   1.000  C
  C58      1.0000 0.44619  0.44619  0.05381  Biso   1.000  C
  C59      1.0000 0.11139  0.11139  0.38861  Biso   1.000  C
  C60      1.0000 0.05381  0.05381  0.44619  Biso   1.000  C
  C61      1.0000 0.38861  0.11139  0.11139  Biso   1.000  C
  C62      1.0000 0.44619  0.05381  0.05381  Biso   1.000  C
  C63      1.0000 0.11139  0.38861  0.38861  Biso   1.000  C
  C64      1.0000 0.05381  0.44619  0.44619  Biso   1.000  C
  C65      1.0000 0.38861  0.11139  0.38861  Biso   1.000  C
  C66      1.0000 0.44619  0.05381  0.44619  Biso   1.000  C
  C67      1.0000 0.11139  0.38861  0.11139  Biso   1.000  C
  C68      1.0000 0.05381  0.44619  0.05381  Biso   1.000  C
  C69      1.0000 0.61139  0.61139  0.88861  Biso   1.000  C
  C70      1.0000 0.55381  0.55381  0.94619  Biso   1.000  C
  C71      1.0000 0.88861  0.88861  0.61139  Biso   1.000  C
  C72      1.0000 0.94619  0.94619  0.55381  Biso   1.000  C
  C73      1.0000 0.88861  0.61139  0.88861  Biso   1.000  C
  C74      1.0000 0.94619  0.55381  0.94619  Biso   1.000  C
  C75      1.0000 0.61139  0.88861  0.61139  Biso   1.000  C
  C76      1.0000 0.55381  0.94619  0.55381  Biso   1.000  C
  C77      1.0000 0.88861  0.61139  0.61139  Biso   1.000  C
  C78      1.0000 0.94619  0.55381  0.55381  Biso   1.000  C
  C79      1.0000 0.61139  0.88861  0.88861  Biso   1.000  C
  C80      1.0000 0.55381  0.94619  0.94619  Biso   1.000  C
  C81      1.0000 0.25000  0.25000  0.25000  Biso   1.000  C
  C82      1.0000 0.75000  0.75000  0.75000  Biso   1.000  C
  C83      1.0000 0.36607  0.36607  0.07299  Biso   1.000  C
  C84      1.0000 0.36607  0.36607  0.19487  Biso   1.000  C
  C85      1.0000 0.07299  0.19487  0.36607  Biso   1.000  C
  C86      1.0000 0.19487  0.07299  0.36607  Biso   1.000  C
  C87      1.0000 0.36607  0.07299  0.19487  Biso   1.000  C
  C88      1.0000 0.36607  0.19487  0.07299  Biso   1.000  C
  C89      1.0000 0.07299  0.36607  0.36607  Biso   1.000  C
  C90      1.0000 0.19487  0.36607  0.36607  Biso   1.000  C
  C91      1.0000 0.36607  0.19487  0.36607  Biso   1.000  C
  C92      1.0000 0.36607  0.07299  0.36607  Biso   1.000  C
  C93      1.0000 0.07299  0.36607  0.19487  Biso   1.000  C
  C94      1.0000 0.19487  0.36607  0.07299  Biso   1.000  C
  C95      1.0000 0.63393  0.63393  0.92701  Biso   1.000  C
  C96      1.0000 0.63393  0.63393  0.80513  Biso   1.000  C
  C97      1.0000 0.80513  0.92701  0.63393  Biso   1.000  C
  C98      1.0000 0.92701  0.80513  0.63393  Biso   1.000  C
  C99      1.0000 0.92701  0.63393  0.80513  Biso   1.000  C
  C100     1.0000 0.80513  0.63393  0.92701  Biso   1.000  C
  C101     1.0000 0.63393  0.92701  0.63393  Biso   1.000  C
  C102     1.0000 0.63393  0.80513  0.63393  Biso   1.000  C
  C103     1.0000 0.80513  0.63393  0.63393  Biso   1.000  C
  C104     1.0000 0.92701  0.63393  0.63393  Biso   1.000  C
  C105     1.0000 0.63393  0.92701  0.80513  Biso   1.000  C
  C106     1.0000 0.63393  0.80513  0.92701  Biso   1.000  C
  O1       1.0000 0.10572  0.92566  0.06703  Biso   1.000  O
  O2       1.0000 0.10572  0.75267  0.06703  Biso   1.000  O
  O3       1.0000 0.10572  0.92566  0.89404  Biso   1.000  O
  O4       1.0000 0.93272  0.92566  0.06703  Biso   1.000  O
  O5       1.0000 0.50070  0.51833  0.48671  Biso   1.000  O
  O6       1.0000 0.50070  0.34534  0.48671  Biso   1.000  O
  O7       1.0000 0.50070  0.34534  0.65970  Biso   1.000  O
  O8       1.0000 0.67370  0.34534  0.48671  Biso   1.000  O
  O9       1.0000 0.28430  0.71688  0.24561  Biso   1.000  O
  O10      1.0000 0.28430  0.60429  0.24561  Biso   1.000  O
  O11      1.0000 0.89694  0.10424  0.74566  Biso   1.000  O
  O12      1.0000 0.78434  0.10424  0.85825  Biso   1.000  O
  O13      1.0000 0.89694  0.10424  0.24561  Biso   1.000  O
  O14      1.0000 0.78434  0.10424  0.24561  Biso   1.000  O
  O15      1.0000 0.28430  0.60429  0.85825  Biso   1.000  O
  O16      1.0000 0.28430  0.71688  0.74566  Biso   1.000  O
  O17      1.0000 0.28430  0.10424  0.85825  Biso   1.000  O
  O18      1.0000 0.28430  0.10424  0.74566  Biso   1.000  O
  O19      1.0000 0.78434  0.71688  0.24561  Biso   1.000  O
  O20      1.0000 0.89694  0.60429  0.24561  Biso   1.000  O
  O21      1.0000 0.32213  0.66671  0.30813  Biso   1.000  O
  O22      1.0000 0.32213  0.55412  0.30813  Biso   1.000  O
  O23      1.0000 0.70949  0.16676  0.80808  Biso   1.000  O
  O24      1.0000 0.82208  0.16676  0.69549  Biso   1.000  O
  O25      1.0000 0.70949  0.66671  0.30813  Biso   1.000  O
  O26      1.0000 0.82208  0.55412  0.30813  Biso   1.000  O
  O27      1.0000 0.32213  0.16676  0.69549  Biso   1.000  O
  O28      1.0000 0.32213  0.16676  0.80808  Biso   1.000  O
  O29      1.0000 0.32213  0.66671  0.69549  Biso   1.000  O
  O30      1.0000 0.32213  0.55412  0.80808  Biso   1.000  O
  O31      1.0000 0.82208  0.16676  0.30813  Biso   1.000  O
  O32      1.0000 0.70949  0.16676  0.30813  Biso   1.000  O
  O33      1.0000 0.25565  0.68923  0.21697  Biso   1.000  O
  O34      1.0000 0.20044  0.74444  0.16176  Biso   1.000  O
  O35      1.0000 0.86928  0.07560  0.83060  Biso   1.000  O
  O36      1.0000 0.92449  0.02039  0.88581  Biso   1.000  O
  O37      1.0000 0.86928  0.07560  0.21697  Biso   1.000  O
  O38      1.0000 0.92449  0.02039  0.16176  Biso   1.000  O
  O39      1.0000 0.25565  0.68923  0.83060  Biso   1.000  O
  O40      1.0000 0.20044  0.74444  0.88581  Biso   1.000  O
  O41      1.0000 0.25565  0.07560  0.83060  Biso   1.000  O
  O42      1.0000 0.20044  0.02039  0.88581  Biso   1.000  O
  O43      1.0000 0.86928  0.68923  0.21697  Biso   1.000  O
  O44      1.0000 0.92449  0.74444  0.16176  Biso   1.000  O
  O45      1.0000 0.35077  0.58177  0.33677  Biso   1.000  O
  O46      1.0000 0.40598  0.52656  0.39198  Biso   1.000  O
  O47      1.0000 0.73714  0.19540  0.72314  Biso   1.000  O
  O48      1.0000 0.68193  0.25061  0.66793  Biso   1.000  O
  O49      1.0000 0.73714  0.58177  0.33677  Biso   1.000  O
  O50      1.0000 0.68193  0.52656  0.39198  Biso   1.000  O
  O51      1.0000 0.35077  0.19540  0.72314  Biso   1.000  O
  O52      1.0000 0.40598  0.25061  0.66793  Biso   1.000  O
  O53      1.0000 0.35077  0.58177  0.72314  Biso   1.000  O
  O54      1.0000 0.40598  0.52656  0.66793  Biso   1.000  O
  O55      1.0000 0.73714  0.19540  0.33677  Biso   1.000  O
  O56      1.0000 0.68193  0.25061  0.39198  Biso   1.000  O
  O57      1.0000 0.06247  0.88241  0.02378  Biso   1.000  O
  O58      1.0000 0.54395  0.38859  0.52996  Biso   1.000  O
  O59      1.0000 0.17674  0.82720  0.13806  Biso   1.000  O
  O60      1.0000 0.17674  0.70908  0.13806  Biso   1.000  O
  O61      1.0000 0.00726  0.99669  0.85045  Biso   1.000  O
  O62      1.0000 0.88913  0.99669  0.96857  Biso   1.000  O
  O63      1.0000 0.00726  0.99669  0.13806  Biso   1.000  O
  O64      1.0000 0.88913  0.99669  0.13806  Biso   1.000  O
  O65      1.0000 0.17674  0.70908  0.96857  Biso   1.000  O
  O66      1.0000 0.17674  0.82720  0.85045  Biso   1.000  O
  O67      1.0000 0.17674  0.99669  0.96857  Biso   1.000  O
  O68      1.0000 0.17674  0.99669  0.85045  Biso   1.000  O
  O69      1.0000 0.88913  0.82720  0.13806  Biso   1.000  O
  O70      1.0000 0.00726  0.70908  0.13806  Biso   1.000  O
  O71      1.0000 0.42968  0.56192  0.41568  Biso   1.000  O
  O72      1.0000 0.42968  0.44380  0.41568  Biso   1.000  O
  O73      1.0000 0.59916  0.27431  0.70329  Biso   1.000  O
  O74      1.0000 0.71729  0.27431  0.58517  Biso   1.000  O
  O75      1.0000 0.59916  0.56192  0.41568  Biso   1.000  O
  O76      1.0000 0.71729  0.44380  0.41568  Biso   1.000  O
  O77      1.0000 0.42968  0.27431  0.58517  Biso   1.000  O
  O78      1.0000 0.42968  0.27431  0.70329  Biso   1.000  O
  O79      1.0000 0.42968  0.56192  0.58517  Biso   1.000  O
  O80      1.0000 0.42968  0.44380  0.70329  Biso   1.000  O
  O81      1.0000 0.71729  0.27431  0.41568  Biso   1.000  O
  O82      1.0000 0.59916  0.27431  0.41568  Biso   1.000  O
  O83      1.0000 0.26224  0.79298  0.22355  Biso   1.000  O
  O84      1.0000 0.26224  0.57231  0.22355  Biso   1.000  O
  O85      1.0000 0.97305  0.08218  0.71368  Biso   1.000  O
  O86      1.0000 0.75237  0.08218  0.93435  Biso   1.000  O
  O87      1.0000 0.75237  0.08218  0.22355  Biso   1.000  O
  O88      1.0000 0.26224  0.57231  0.93435  Biso   1.000  O
  O89      1.0000 0.26224  0.79298  0.71368  Biso   1.000  O
  O90      1.0000 0.26224  0.08218  0.93435  Biso   1.000  O
  O91      1.0000 0.26224  0.08218  0.71368  Biso   1.000  O
  O92      1.0000 0.75237  0.79298  0.22355  Biso   1.000  O
  O93      1.0000 0.97305  0.57231  0.22355  Biso   1.000  O
  O94      1.0000 0.34418  0.69869  0.33019  Biso   1.000  O
  O95      1.0000 0.34418  0.47802  0.33019  Biso   1.000  O
  O96      1.0000 0.63338  0.18882  0.84006  Biso   1.000  O
  O97      1.0000 0.85405  0.18882  0.61939  Biso   1.000  O
  O98      1.0000 0.63338  0.69869  0.33019  Biso   1.000  O
  O99      1.0000 0.85405  0.47802  0.33019  Biso   1.000  O
  O100     1.0000 0.34418  0.18882  0.61939  Biso   1.000  O
  O101     1.0000 0.34418  0.18882  0.84006  Biso   1.000  O
  O102     1.0000 0.34418  0.47802  0.84006  Biso   1.000  O
  O103     1.0000 0.85405  0.18882  0.33019  Biso   1.000  O
  O104     1.0000 0.63338  0.18882  0.33019  Biso   1.000  O
  O105     1.0000 0.34418  0.69869  0.61939  Biso   1.000  O
