data_image0
_cell_length_a       18.2704
_cell_length_b       18.2704
_cell_length_c       18.2704
_cell_angle_alpha    60
_cell_angle_beta     60
_cell_angle_gamma    60

_symmetry_space_group_name_H-M    "P 1"
_symmetry_int_tables_number       1

loop_
  _symmetry_equiv_pos_as_xyz
  'x, y, z'

loop_
  _atom_site_label
  _atom_site_occupancy
  _atom_site_fract_x
  _atom_site_fract_y
  _atom_site_fract_z
  _atom_site_thermal_displace_type
  _atom_site_B_iso_or_equiv
  _atom_site_type_symbol
  Zn1      1.0000 0.29350  0.29349  0.11952  Biso   1.000  Zn
  Zn2      1.0000 0.29350  0.29349  0.29349  Biso   1.000  Zn
  Zn3      1.0000 0.11953  0.29349  0.29349  Biso   1.000  Zn
  Zn4      1.0000 0.29350  0.11952  0.29349  Biso   1.000  Zn
  Zn5      1.0000 0.70650  0.70651  0.88048  Biso   1.000  Zn
  Zn6      1.0000 0.70650  0.70651  0.70651  Biso   1.000  Zn
  Zn7      1.0000 0.70650  0.88048  0.70651  Biso   1.000  Zn
  Zn8      1.0000 0.88047  0.70651  0.70651  Biso   1.000  Zn
  H1       1.0000 0.45540  0.45540  0.93560  Biso   1.000  H
  H2       1.0000 0.45540  0.45540  0.15360  Biso   1.000  H
  H3       1.0000 0.93560  0.15360  0.45540  Biso   1.000  H
  H4       1.0000 0.15360  0.93560  0.45540  Biso   1.000  H
  H5       1.0000 0.45540  0.93560  0.15360  Biso   1.000  H
  H6       1.0000 0.45540  0.15360  0.93560  Biso   1.000  H
  H7       1.0000 0.93560  0.45540  0.45540  Biso   1.000  H
  H8       1.0000 0.15360  0.45540  0.45540  Biso   1.000  H
  H9       1.0000 0.45540  0.15360  0.45540  Biso   1.000  H
  H10      1.0000 0.45540  0.93560  0.45540  Biso   1.000  H
  H11      1.0000 0.93560  0.45540  0.15360  Biso   1.000  H
  H12      1.0000 0.15360  0.45540  0.93560  Biso   1.000  H
  H13      1.0000 0.54460  0.54460  0.06440  Biso   1.000  H
  H14      1.0000 0.54460  0.54460  0.84640  Biso   1.000  H
  H15      1.0000 0.84640  0.06440  0.54460  Biso   1.000  H
  H16      1.0000 0.06440  0.84640  0.54460  Biso   1.000  H
  H17      1.0000 0.06440  0.54460  0.84640  Biso   1.000  H
  H18      1.0000 0.84640  0.54460  0.06440  Biso   1.000  H
  H19      1.0000 0.54460  0.06440  0.54460  Biso   1.000  H
  H20      1.0000 0.54460  0.84640  0.54460  Biso   1.000  H
  H21      1.0000 0.84640  0.54460  0.54460  Biso   1.000  H
  H22      1.0000 0.06440  0.54460  0.54460  Biso   1.000  H
  H23      1.0000 0.54460  0.06440  0.84640  Biso   1.000  H
  H24      1.0000 0.54460  0.84640  0.06440  Biso   1.000  H
  C1       1.0000 0.47338  0.47338  0.96238  Biso   1.000  C
  C2       1.0000 0.47338  0.47338  0.09086  Biso   1.000  C
  C3       1.0000 0.96238  0.09086  0.47338  Biso   1.000  C
  C4       1.0000 0.09086  0.96238  0.47338  Biso   1.000  C
  C5       1.0000 0.47338  0.96238  0.09086  Biso   1.000  C
  C6       1.0000 0.47338  0.09086  0.96238  Biso   1.000  C
  C7       1.0000 0.96238  0.47338  0.47338  Biso   1.000  C
  C8       1.0000 0.09086  0.47338  0.47338  Biso   1.000  C
  C9       1.0000 0.47338  0.09086  0.47338  Biso   1.000  C
  C10      1.0000 0.47338  0.96238  0.47338  Biso   1.000  C
  C11      1.0000 0.96238  0.47338  0.09086  Biso   1.000  C
  C12      1.0000 0.09086  0.47338  0.96238  Biso   1.000  C
  C13      1.0000 0.52662  0.52662  0.03762  Biso   1.000  C
  C14      1.0000 0.52662  0.52662  0.90914  Biso   1.000  C
  C15      1.0000 0.90914  0.03762  0.52662  Biso   1.000  C
  C16      1.0000 0.03762  0.90914  0.52662  Biso   1.000  C
  C17      1.0000 0.03762  0.52662  0.90914  Biso   1.000  C
  C18      1.0000 0.90914  0.52662  0.03762  Biso   1.000  C
  C19      1.0000 0.52662  0.03762  0.52662  Biso   1.000  C
  C20      1.0000 0.52662  0.90914  0.52662  Biso   1.000  C
  C21      1.0000 0.90914  0.52662  0.52662  Biso   1.000  C
  C22      1.0000 0.03762  0.52662  0.52662  Biso   1.000  C
  C23      1.0000 0.52662  0.03762  0.90914  Biso   1.000  C
  C24      1.0000 0.52662  0.90914  0.03762  Biso   1.000  C
  C25      1.0000 0.38861  0.38861  0.11139  Biso   1.000  C
  C26      1.0000 0.44619  0.44619  0.05381  Biso   1.000  C
  C27      1.0000 0.11139  0.11139  0.38861  Biso   1.000  C
  C28      1.0000 0.05381  0.05381  0.44619  Biso   1.000  C
  C29      1.0000 0.38861  0.11139  0.11139  Biso   1.000  C
  C30      1.0000 0.44619  0.05381  0.05381  Biso   1.000  C
  C31      1.0000 0.11139  0.38861  0.38861  Biso   1.000  C
  C32      1.0000 0.05381  0.44619  0.44619  Biso   1.000  C
  C33      1.0000 0.38861  0.11139  0.38861  Biso   1.000  C
  C34      1.0000 0.44619  0.05381  0.44619  Biso   1.000  C
  C35      1.0000 0.11139  0.38861  0.11139  Biso   1.000  C
  C36      1.0000 0.05381  0.44619  0.05381  Biso   1.000  C
  C37      1.0000 0.61139  0.61139  0.88861  Biso   1.000  C
  C38      1.0000 0.55381  0.55381  0.94619  Biso   1.000  C
  C39      1.0000 0.88861  0.88861  0.61139  Biso   1.000  C
  C40      1.0000 0.94619  0.94619  0.55381  Biso   1.000  C
  C41      1.0000 0.88861  0.61139  0.88861  Biso   1.000  C
  C42      1.0000 0.94619  0.55381  0.94619  Biso   1.000  C
  C43      1.0000 0.61139  0.88861  0.61139  Biso   1.000  C
  C44      1.0000 0.55381  0.94619  0.55381  Biso   1.000  C
  C45      1.0000 0.88861  0.61139  0.61139  Biso   1.000  C
  C46      1.0000 0.94619  0.55381  0.55381  Biso   1.000  C
  C47      1.0000 0.61139  0.88861  0.88861  Biso   1.000  C
  C48      1.0000 0.55381  0.94619  0.94619  Biso   1.000  C
  O1       1.0000 0.25000  0.25000  0.25000  Biso   1.000  O
  O2       1.0000 0.75000  0.75000  0.75000  Biso   1.000  O
  O3       1.0000 0.36607  0.36607  0.07299  Biso   1.000  O
  O4       1.0000 0.36607  0.36607  0.19487  Biso   1.000  O
  O5       1.0000 0.07299  0.19487  0.36607  Biso   1.000  O
  O6       1.0000 0.19487  0.07299  0.36607  Biso   1.000  O
  O7       1.0000 0.36607  0.07299  0.19487  Biso   1.000  O
  O8       1.0000 0.36607  0.19487  0.07299  Biso   1.000  O
  O9       1.0000 0.07299  0.36607  0.36607  Biso   1.000  O
  O10      1.0000 0.19487  0.36607  0.36607  Biso   1.000  O
  O11      1.0000 0.36607  0.19487  0.36607  Biso   1.000  O
  O12      1.0000 0.36607  0.07299  0.36607  Biso   1.000  O
  O13      1.0000 0.07299  0.36607  0.19487  Biso   1.000  O
  O14      1.0000 0.19487  0.36607  0.07299  Biso   1.000  O
  O15      1.0000 0.63393  0.63393  0.92701  Biso   1.000  O
  O16      1.0000 0.63393  0.63393  0.80513  Biso   1.000  O
  O17      1.0000 0.80513  0.92701  0.63393  Biso   1.000  O
  O18      1.0000 0.92701  0.80513  0.63393  Biso   1.000  O
  O19      1.0000 0.92701  0.63393  0.80513  Biso   1.000  O
  O20      1.0000 0.80513  0.63393  0.92701  Biso   1.000  O
  O21      1.0000 0.63393  0.92701  0.63393  Biso   1.000  O
  O22      1.0000 0.63393  0.80513  0.63393  Biso   1.000  O
  O23      1.0000 0.80513  0.63393  0.63393  Biso   1.000  O
  O24      1.0000 0.92701  0.63393  0.63393  Biso   1.000  O
  O25      1.0000 0.63393  0.92701  0.80513  Biso   1.000  O
  O26      1.0000 0.63393  0.80513  0.92701  Biso   1.000  O
  Zn9      1.0000 0.17218  0.97353  0.87145  Biso   1.000  Zn
  Zn10     1.0000 0.58535  0.38669  0.45827  Biso   1.000  Zn
  Zn11     1.0000 0.41116  0.56088  0.45827  Biso   1.000  Zn
  Zn12     1.0000 0.99799  0.14771  0.87145  Biso   1.000  Zn
  Zn13     1.0000 0.99780  0.97333  0.04577  Biso   1.000  Zn
  Zn14     1.0000 0.99793  0.97346  0.87124  Biso   1.000  Zn
  Zn15     1.0000 0.58554  0.56107  0.28394  Biso   1.000  Zn
  Zn16     1.0000 0.58541  0.56095  0.45848  Biso   1.000  Zn
  H25      1.0000 0.83544  0.33145  0.01270  Biso   1.000  H
  H26      1.0000 0.83232  0.11455  0.22640  Biso   1.000  H
  H27      1.0000 0.83905  0.32947  0.71049  Biso   1.000  H
  H28      1.0000 0.83854  0.11338  0.70520  Biso   1.000  H
  H29      1.0000 0.35503  0.11398  0.71229  Biso   1.000  H
  H30      1.0000 0.22742  0.72344  0.31701  Biso   1.000  H
  H31      1.0000 0.44433  0.72655  0.10332  Biso   1.000  H
  H32      1.0000 0.22940  0.71983  0.61922  Biso   1.000  H
  H33      1.0000 0.44549  0.72033  0.62452  Biso   1.000  H
  H34      1.0000 0.44489  0.20384  0.61743  Biso   1.000  H
  H35      1.0000 0.74790  0.20296  0.31701  Biso   1.000  H
  H36      1.0000 0.75102  0.41986  0.10332  Biso   1.000  H
  H37      1.0000 0.74429  0.20494  0.61922  Biso   1.000  H
  H38      1.0000 0.74479  0.42103  0.62452  Biso   1.000  H
  H39      1.0000 0.22830  0.42043  0.61743  Biso   1.000  H
  H40      1.0000 0.35592  0.81097  0.01270  Biso   1.000  H
  H41      1.0000 0.13901  0.80786  0.22640  Biso   1.000  H
  H42      1.0000 0.35394  0.81458  0.71049  Biso   1.000  H
  H43      1.0000 0.13784  0.81408  0.70520  Biso   1.000  H
  H44      1.0000 0.13845  0.33057  0.71229  Biso   1.000  H
  H45      1.0000 0.83673  0.81227  0.01200  Biso   1.000  H
  H46      1.0000 0.83402  0.80956  0.23029  Biso   1.000  H
  H47      1.0000 0.74661  0.72214  0.31771  Biso   1.000  H
  H48      1.0000 0.74932  0.72485  0.09942  Biso   1.000  H
  C49      1.0000 0.90336  0.15742  0.05137  Biso   1.000  C
  C50      1.0000 0.84461  0.21435  0.11171  Biso   1.000  C
  C51      1.0000 0.81855  0.30497  0.07494  Biso   1.000  C
  C52      1.0000 0.81674  0.17669  0.20082  Biso   1.000  C
  C53      1.0000 0.90377  0.15623  0.77503  Biso   1.000  C
  C54      1.0000 0.84793  0.21188  0.71818  Biso   1.000  C
  C55      1.0000 0.82017  0.30379  0.69301  Biso   1.000  C
  C56      1.0000 0.81976  0.17532  0.68961  Biso   1.000  C
  C57      1.0000 0.32876  0.17602  0.69281  Biso   1.000  C
  C58      1.0000 0.40146  0.65551  0.27835  Biso   1.000  C
  C59      1.0000 0.34452  0.71425  0.21801  Biso   1.000  C
  C60      1.0000 0.25390  0.74033  0.25477  Biso   1.000  C
  C61      1.0000 0.38219  0.74213  0.12889  Biso   1.000  C
  C62      1.0000 0.40264  0.65510  0.55469  Biso   1.000  C
  C63      1.0000 0.34700  0.71094  0.61153  Biso   1.000  C
  C64      1.0000 0.25507  0.73871  0.63671  Biso   1.000  C
  C65      1.0000 0.38356  0.73911  0.64010  Biso   1.000  C
  C66      1.0000 0.38285  0.23011  0.63691  Biso   1.000  C
  C67      1.0000 0.67998  0.37699  0.27835  Biso   1.000  C
  C68      1.0000 0.73872  0.32005  0.21801  Biso   1.000  C
  C69      1.0000 0.76479  0.22943  0.25477  Biso   1.000  C
  C70      1.0000 0.76660  0.35772  0.12889  Biso   1.000  C
  C71      1.0000 0.67956  0.37817  0.55469  Biso   1.000  C
  C72      1.0000 0.73541  0.32253  0.61153  Biso   1.000  C
  C73      1.0000 0.76317  0.23061  0.63671  Biso   1.000  C
  C74      1.0000 0.76357  0.35909  0.64010  Biso   1.000  C
  C75      1.0000 0.25458  0.35839  0.63691  Biso   1.000  C
  C76      1.0000 0.18188  0.87890  0.05137  Biso   1.000  C
  C77      1.0000 0.23882  0.82015  0.11171  Biso   1.000  C
  C78      1.0000 0.32944  0.79408  0.07494  Biso   1.000  C
  C79      1.0000 0.20115  0.79228  0.20082  Biso   1.000  C
  C80      1.0000 0.18070  0.87931  0.77503  Biso   1.000  C
  C81      1.0000 0.23634  0.82347  0.71818  Biso   1.000  C
  C82      1.0000 0.32827  0.79570  0.69301  Biso   1.000  C
  C83      1.0000 0.19978  0.79530  0.68961  Biso   1.000  C
  C84      1.0000 0.20049  0.30429  0.69281  Biso   1.000  C
  C85      1.0000 0.90166  0.87720  0.05796  Biso   1.000  C
  C86      1.0000 0.84562  0.82115  0.11091  Biso   1.000  C
  C87      1.0000 0.81905  0.79458  0.07394  Biso   1.000  C
  C88      1.0000 0.81664  0.79218  0.20282  Biso   1.000  C
  C89      1.0000 0.17780  0.15333  0.78022  Biso   1.000  C
  C90      1.0000 0.23794  0.21348  0.71828  Biso   1.000  C
  C91      1.0000 0.68168  0.65721  0.27176  Biso   1.000  C
  C92      1.0000 0.73772  0.71325  0.21881  Biso   1.000  C
  C93      1.0000 0.76429  0.73983  0.25577  Biso   1.000  C
  C94      1.0000 0.76670  0.74223  0.12689  Biso   1.000  C
  C95      1.0000 0.40554  0.38107  0.54949  Biso   1.000  C
  C96      1.0000 0.34540  0.32093  0.61143  Biso   1.000  C
  O27      1.0000 0.92344  0.07180  0.09482  Biso   1.000  O
  O28      1.0000 0.92584  0.19788  0.96874  Biso   1.000  O
  O29      1.0000 0.92315  0.07072  0.80030  Biso   1.000  O
  O30      1.0000 0.92535  0.19639  0.79751  Biso   1.000  O
  O31      1.0000 0.22015  0.07042  0.79981  Biso   1.000  O
  O32      1.0000 0.48708  0.63543  0.23489  Biso   1.000  O
  O33      1.0000 0.36100  0.63303  0.36097  Biso   1.000  O
  O34      1.0000 0.48816  0.63572  0.52941  Biso   1.000  O
  O35      1.0000 0.36248  0.63352  0.53221  Biso   1.000  O
  O36      1.0000 0.48846  0.33872  0.52991  Biso   1.000  O
  O37      1.0000 0.65990  0.46261  0.23489  Biso   1.000  O
  O38      1.0000 0.65750  0.33653  0.36097  Biso   1.000  O
  O39      1.0000 0.66018  0.46369  0.52941  Biso   1.000  O
  O40      1.0000 0.65799  0.33802  0.53221  Biso   1.000  O
  O41      1.0000 0.36319  0.46399  0.52991  Biso   1.000  O
  O42      1.0000 0.09626  0.89897  0.09482  Biso   1.000  O
  O43      1.0000 0.22234  0.90138  0.96874  Biso   1.000  O
  O44      1.0000 0.09518  0.89869  0.80030  Biso   1.000  O
  O45      1.0000 0.22085  0.90089  0.79751  Biso   1.000  O
  O46      1.0000 0.09488  0.19569  0.79981  Biso   1.000  O
  O47      1.0000 0.04133  0.01686  0.91530  Biso   1.000  O
  O48      1.0000 0.92484  0.90037  0.09382  Biso   1.000  O
  O49      1.0000 0.92325  0.89878  0.97344  Biso   1.000  O
  O50      1.0000 0.54201  0.51754  0.41442  Biso   1.000  O
  O51      1.0000 0.65850  0.63403  0.23589  Biso   1.000  O
