data_image0
_cell_length_a       18.228
_cell_length_b       18.228
_cell_length_c       18.228
_cell_angle_alpha    60
_cell_angle_beta     60
_cell_angle_gamma    60

_symmetry_space_group_name_H-M    "P 1"
_symmetry_int_tables_number       1

loop_
  _symmetry_equiv_pos_as_xyz
  'x, y, z'

loop_
  _atom_site_label
  _atom_site_occupancy
  _atom_site_fract_x
  _atom_site_fract_y
  _atom_site_fract_z
  _atom_site_thermal_displace_type
  _atom_site_B_iso_or_equiv
  _atom_site_type_symbol
  C1       1.0000 0.29358  0.29359  0.11924  Biso   1.000  C
  C2       1.0000 0.29358  0.29359  0.29359  Biso   1.000  C
  C3       1.0000 0.11923  0.29359  0.29359  Biso   1.000  C
  C4       1.0000 0.29358  0.11924  0.29359  Biso   1.000  C
  C5       1.0000 0.70642  0.70641  0.88076  Biso   1.000  C
  C6       1.0000 0.70642  0.70641  0.70641  Biso   1.000  C
  C7       1.0000 0.70642  0.88076  0.70641  Biso   1.000  C
  C8       1.0000 0.88077  0.70641  0.70641  Biso   1.000  C
  C9       1.0000 0.45570  0.45570  0.93670  Biso   1.000  C
  C10      1.0000 0.45570  0.45570  0.15190  Biso   1.000  C
  C11      1.0000 0.93670  0.15190  0.45570  Biso   1.000  C
  C12      1.0000 0.15190  0.93670  0.45570  Biso   1.000  C
  C13      1.0000 0.45570  0.93670  0.15190  Biso   1.000  C
  C14      1.0000 0.45570  0.15190  0.93670  Biso   1.000  C
  C15      1.0000 0.93670  0.45570  0.45570  Biso   1.000  C
  C16      1.0000 0.15190  0.45570  0.45570  Biso   1.000  C
  C17      1.0000 0.45570  0.15190  0.45570  Biso   1.000  C
  C18      1.0000 0.45570  0.93670  0.45570  Biso   1.000  C
  C19      1.0000 0.93670  0.45570  0.15190  Biso   1.000  C
  C20      1.0000 0.15190  0.45570  0.93670  Biso   1.000  C
  C21      1.0000 0.54430  0.54430  0.06330  Biso   1.000  C
  C22      1.0000 0.54430  0.54430  0.84810  Biso   1.000  C
  C23      1.0000 0.84810  0.06330  0.54430  Biso   1.000  C
  C24      1.0000 0.06330  0.84810  0.54430  Biso   1.000  C
  C25      1.0000 0.06330  0.54430  0.84810  Biso   1.000  C
  C26      1.0000 0.84810  0.54430  0.06330  Biso   1.000  C
  C27      1.0000 0.54430  0.06330  0.54430  Biso   1.000  C
  C28      1.0000 0.54430  0.84810  0.54430  Biso   1.000  C
  C29      1.0000 0.84810  0.54430  0.54430  Biso   1.000  C
  C30      1.0000 0.06330  0.54430  0.54430  Biso   1.000  C
  C31      1.0000 0.54430  0.06330  0.84810  Biso   1.000  C
  C32      1.0000 0.54430  0.84810  0.06330  Biso   1.000  C
  C33      1.0000 0.47340  0.47340  0.96356  Biso   1.000  C
  C34      1.0000 0.47340  0.47340  0.08964  Biso   1.000  C
  C35      1.0000 0.96356  0.08964  0.47340  Biso   1.000  C
  C36      1.0000 0.08964  0.96356  0.47340  Biso   1.000  C
  C37      1.0000 0.47340  0.96356  0.08964  Biso   1.000  C
  C38      1.0000 0.47340  0.08964  0.96356  Biso   1.000  C
  C39      1.0000 0.96356  0.47340  0.47340  Biso   1.000  C
  C40      1.0000 0.08964  0.47340  0.47340  Biso   1.000  C
  C41      1.0000 0.47340  0.08964  0.47340  Biso   1.000  C
  C42      1.0000 0.47340  0.96356  0.47340  Biso   1.000  C
  C43      1.0000 0.96356  0.47340  0.08964  Biso   1.000  C
  C44      1.0000 0.08964  0.47340  0.96356  Biso   1.000  C
  C45      1.0000 0.52660  0.52660  0.03644  Biso   1.000  C
  C46      1.0000 0.52660  0.52660  0.91036  Biso   1.000  C
  C47      1.0000 0.91036  0.03644  0.52660  Biso   1.000  C
  C48      1.0000 0.03644  0.91036  0.52660  Biso   1.000  C
  C49      1.0000 0.03644  0.52660  0.91036  Biso   1.000  C
  C50      1.0000 0.91036  0.52660  0.03644  Biso   1.000  C
  C51      1.0000 0.52660  0.03644  0.52660  Biso   1.000  C
  C52      1.0000 0.52660  0.91036  0.52660  Biso   1.000  C
  C53      1.0000 0.91036  0.52660  0.52660  Biso   1.000  C
  C54      1.0000 0.03644  0.52660  0.52660  Biso   1.000  C
  C55      1.0000 0.52660  0.03644  0.91036  Biso   1.000  C
  C56      1.0000 0.52660  0.91036  0.03644  Biso   1.000  C
  C57      1.0000 0.38850  0.38850  0.11150  Biso   1.000  C
  C58      1.0000 0.44610  0.44610  0.05390  Biso   1.000  C
  C59      1.0000 0.11150  0.11150  0.38850  Biso   1.000  C
  C60      1.0000 0.05390  0.05390  0.44610  Biso   1.000  C
  C61      1.0000 0.38850  0.11150  0.11150  Biso   1.000  C
  C62      1.0000 0.44610  0.05390  0.05390  Biso   1.000  C
  C63      1.0000 0.11150  0.38850  0.38850  Biso   1.000  C
  C64      1.0000 0.05390  0.44610  0.44610  Biso   1.000  C
  C65      1.0000 0.38850  0.11150  0.38850  Biso   1.000  C
  C66      1.0000 0.44610  0.05390  0.44610  Biso   1.000  C
  C67      1.0000 0.11150  0.38850  0.11150  Biso   1.000  C
  C68      1.0000 0.05390  0.44610  0.05390  Biso   1.000  C
  C69      1.0000 0.61150  0.61150  0.88850  Biso   1.000  C
  C70      1.0000 0.55390  0.55390  0.94610  Biso   1.000  C
  C71      1.0000 0.88850  0.88850  0.61150  Biso   1.000  C
  C72      1.0000 0.94610  0.94610  0.55390  Biso   1.000  C
  C73      1.0000 0.88850  0.61150  0.88850  Biso   1.000  C
  C74      1.0000 0.94610  0.55390  0.94610  Biso   1.000  C
  C75      1.0000 0.61150  0.88850  0.61150  Biso   1.000  C
  C76      1.0000 0.55390  0.94610  0.55390  Biso   1.000  C
  C77      1.0000 0.88850  0.61150  0.61150  Biso   1.000  C
  C78      1.0000 0.94610  0.55390  0.55390  Biso   1.000  C
  C79      1.0000 0.61150  0.88850  0.88850  Biso   1.000  C
  C80      1.0000 0.55390  0.94610  0.94610  Biso   1.000  C
  C81      1.0000 0.25000  0.25000  0.25000  Biso   1.000  C
  C82      1.0000 0.75000  0.75000  0.75000  Biso   1.000  C
  C83      1.0000 0.36610  0.36610  0.07322  Biso   1.000  C
  C84      1.0000 0.36610  0.36610  0.19458  Biso   1.000  C
  C85      1.0000 0.07322  0.19458  0.36610  Biso   1.000  C
  C86      1.0000 0.19458  0.07322  0.36610  Biso   1.000  C
  C87      1.0000 0.36610  0.07322  0.19458  Biso   1.000  C
  C88      1.0000 0.36610  0.19458  0.07322  Biso   1.000  C
  C89      1.0000 0.07322  0.36610  0.36610  Biso   1.000  C
  C90      1.0000 0.19458  0.36610  0.36610  Biso   1.000  C
  C91      1.0000 0.36610  0.19458  0.36610  Biso   1.000  C
  C92      1.0000 0.36610  0.07322  0.36610  Biso   1.000  C
  C93      1.0000 0.07322  0.36610  0.19458  Biso   1.000  C
  C94      1.0000 0.19458  0.36610  0.07322  Biso   1.000  C
  C95      1.0000 0.63390  0.63390  0.92678  Biso   1.000  C
  C96      1.0000 0.63390  0.63390  0.80542  Biso   1.000  C
  C97      1.0000 0.80542  0.92678  0.63390  Biso   1.000  C
  C98      1.0000 0.92678  0.80542  0.63390  Biso   1.000  C
  C99      1.0000 0.92678  0.63390  0.80542  Biso   1.000  C
  C100     1.0000 0.80542  0.63390  0.92678  Biso   1.000  C
  C101     1.0000 0.63390  0.92678  0.63390  Biso   1.000  C
  C102     1.0000 0.63390  0.80542  0.63390  Biso   1.000  C
  C103     1.0000 0.80542  0.63390  0.63390  Biso   1.000  C
  C104     1.0000 0.92678  0.63390  0.63390  Biso   1.000  C
  C105     1.0000 0.63390  0.92678  0.80542  Biso   1.000  C
  C106     1.0000 0.63390  0.80542  0.92678  Biso   1.000  C
  O1       1.0000 0.16458  0.00000  0.00000  Biso   1.000  O
  O2       1.0000 0.57599  0.58846  0.41167  Biso   1.000  O
  O3       1.0000 0.57598  0.41335  0.41167  Biso   1.000  O
  O4       1.0000 0.16458  0.82489  0.00000  Biso   1.000  O
  O5       1.0000 0.16412  0.00034  0.82467  Biso   1.000  O
  O6       1.0000 0.98907  0.00015  0.00010  Biso   1.000  O
  O7       1.0000 0.57644  0.41301  0.58700  Biso   1.000  O
  O8       1.0000 0.75149  0.41320  0.41157  Biso   1.000  O
  O9       1.0000 0.32658  0.64635  0.85624  Biso   1.000  O
  O10      1.0000 0.32157  0.86012  0.64425  Biso   1.000  O
  O11      1.0000 0.02230  0.64743  0.16036  Biso   1.000  O
  O12      1.0000 0.80582  0.85759  0.16266  Biso   1.000  O
  O13      1.0000 0.32739  0.85960  0.15786  Biso   1.000  O
  O14      1.0000 0.41399  0.25305  0.55543  Biso   1.000  O
  O15      1.0000 0.41900  0.24983  0.76742  Biso   1.000  O
  O16      1.0000 0.71827  0.25396  0.25131  Biso   1.000  O
  O17      1.0000 0.93475  0.24996  0.24901  Biso   1.000  O
  O18      1.0000 0.41317  0.76872  0.25382  Biso   1.000  O
  O19      1.0000 0.41399  0.76701  0.55543  Biso   1.000  O
  O20      1.0000 0.41900  0.55323  0.76742  Biso   1.000  O
  O21      1.0000 0.71827  0.76592  0.25131  Biso   1.000  O
  O22      1.0000 0.93475  0.55576  0.24901  Biso   1.000  O
  O23      1.0000 0.41317  0.55376  0.25382  Biso   1.000  O
  O24      1.0000 0.32658  0.16031  0.85624  Biso   1.000  O
  O25      1.0000 0.32157  0.16352  0.64425  Biso   1.000  O
  O26      1.0000 0.02229  0.15939  0.16036  Biso   1.000  O
  O27      1.0000 0.80582  0.16340  0.16266  Biso   1.000  O
  O28      1.0000 0.32740  0.64463  0.15786  Biso   1.000  O
  O29      1.0000 0.80671  0.16221  0.85835  Biso   1.000  O
  O30      1.0000 0.02088  0.16332  0.64195  Biso   1.000  O
  O31      1.0000 0.93386  0.25114  0.55333  Biso   1.000  O
  O32      1.0000 0.71969  0.25003  0.76972  Biso   1.000  O
  O33      1.0000 0.25900  0.81636  0.81979  Biso   1.000  O
  O34      1.0000 0.31867  0.75818  0.75851  Biso   1.000  O
  O35      1.0000 0.34440  0.67208  0.79396  Biso   1.000  O
  O36      1.0000 0.34100  0.79794  0.67029  Biso   1.000  O
  O37      1.0000 0.97954  0.81955  0.09727  Biso   1.000  O
  O38      1.0000 0.92538  0.76097  0.15265  Biso   1.000  O
  O39      1.0000 0.96002  0.67367  0.17838  Biso   1.000  O
  O40      1.0000 0.83356  0.79551  0.18019  Biso   1.000  O
  O41      1.0000 0.34331  0.79741  0.17798  Biso   1.000  O
  O42      1.0000 0.48157  0.31903  0.59188  Biso   1.000  O
  O43      1.0000 0.42189  0.25925  0.65317  Biso   1.000  O
  O44      1.0000 0.39617  0.23432  0.61772  Biso   1.000  O
  O45      1.0000 0.39957  0.23311  0.74139  Biso   1.000  O
  O46      1.0000 0.76102  0.32025  0.31440  Biso   1.000  O
  O47      1.0000 0.81519  0.26287  0.25903  Biso   1.000  O
  O48      1.0000 0.78055  0.23594  0.23329  Biso   1.000  O
  O49      1.0000 0.90701  0.23314  0.23149  Biso   1.000  O
  O50      1.0000 0.39725  0.74259  0.23369  Biso   1.000  O
  O51      1.0000 0.48157  0.59700  0.59188  Biso   1.000  O
  O52      1.0000 0.42190  0.65517  0.65317  Biso   1.000  O
  O53      1.0000 0.39617  0.74127  0.61772  Biso   1.000  O
  O54      1.0000 0.39957  0.61541  0.74139  Biso   1.000  O
  O55      1.0000 0.76102  0.59381  0.31440  Biso   1.000  O
  O56      1.0000 0.81519  0.65239  0.25903  Biso   1.000  O
  O57      1.0000 0.78055  0.73969  0.23329  Biso   1.000  O
  O58      1.0000 0.90701  0.61784  0.23149  Biso   1.000  O
  O59      1.0000 0.39725  0.61594  0.23369  Biso   1.000  O
  O60      1.0000 0.25900  0.09432  0.81979  Biso   1.000  O
  O61      1.0000 0.31867  0.15411  0.75851  Biso   1.000  O
  O62      1.0000 0.34440  0.17904  0.79396  Biso   1.000  O
  O63      1.0000 0.34100  0.18024  0.67029  Biso   1.000  O
  O64      1.0000 0.97954  0.09311  0.09727  Biso   1.000  O
  O65      1.0000 0.92538  0.15048  0.15265  Biso   1.000  O
  O66      1.0000 0.96001  0.17741  0.17838  Biso   1.000  O
  O67      1.0000 0.83356  0.18022  0.18019  Biso   1.000  O
  O68      1.0000 0.34332  0.67076  0.17798  Biso   1.000  O
  O69      1.0000 0.98624  0.09512  0.81298  Biso   1.000  O
  O70      1.0000 0.92396  0.15240  0.76071  Biso   1.000  O
  O71      1.0000 0.83394  0.17964  0.79626  Biso   1.000  O
  O72      1.0000 0.95870  0.18084  0.66909  Biso   1.000  O
  O73      1.0000 0.25751  0.82135  0.08926  Biso   1.000  O
  O74      1.0000 0.31759  0.75957  0.15275  Biso   1.000  O
  O75      1.0000 0.75433  0.31823  0.59869  Biso   1.000  O
  O76      1.0000 0.81661  0.26095  0.65096  Biso   1.000  O
  O77      1.0000 0.90663  0.23372  0.61541  Biso   1.000  O
  O78      1.0000 0.78187  0.23251  0.74259  Biso   1.000  O
  O79      1.0000 0.48306  0.59200  0.32241  Biso   1.000  O
  O80      1.0000 0.42298  0.65379  0.25893  Biso   1.000  O
  O81      1.0000 0.23887  0.90187  0.77383  Biso   1.000  O
  O82      1.0000 0.24018  0.77240  0.90411  Biso   1.000  O
  O83      1.0000 0.93959  0.90286  0.07074  Biso   1.000  O
  O84      1.0000 0.06596  0.77539  0.07474  Biso   1.000  O
  O85      1.0000 0.23838  0.90386  0.07194  Biso   1.000  O
  O86      1.0000 0.50170  0.33845  0.63784  Biso   1.000  O
  O87      1.0000 0.50039  0.34056  0.50757  Biso   1.000  O
  O88      1.0000 0.80098  0.33707  0.34094  Biso   1.000  O
  O89      1.0000 0.67461  0.33997  0.33693  Biso   1.000  O
  O90      1.0000 0.50219  0.63806  0.33974  Biso   1.000  O
  O91      1.0000 0.50170  0.51148  0.63784  Biso   1.000  O
  O92      1.0000 0.50039  0.64096  0.50757  Biso   1.000  O
  O93      1.0000 0.80098  0.51050  0.34094  Biso   1.000  O
  O94      1.0000 0.67461  0.63796  0.33693  Biso   1.000  O
  O95      1.0000 0.50218  0.50949  0.33974  Biso   1.000  O
  O96      1.0000 0.23887  0.07490  0.77383  Biso   1.000  O
  O97      1.0000 0.24018  0.07279  0.90411  Biso   1.000  O
  O98      1.0000 0.93959  0.07629  0.07074  Biso   1.000  O
  O99      1.0000 0.06596  0.07338  0.07474  Biso   1.000  O
  O100     1.0000 0.23838  0.77529  0.07194  Biso   1.000  O
  O101     1.0000 0.12132  0.95613  0.95588  Biso   1.000  O
  O102     1.0000 0.06714  0.07390  0.77453  Biso   1.000  O
  O103     1.0000 0.94098  0.07620  0.89610  Biso   1.000  O
  O104     1.0000 0.61924  0.45722  0.45579  Biso   1.000  O
  O105     1.0000 0.67342  0.33946  0.63714  Biso   1.000  O
