data_image0
_cell_length_a       18.2751
_cell_length_b       18.2751
_cell_length_c       18.2751
_cell_angle_alpha    60
_cell_angle_beta     60
_cell_angle_gamma    60

_symmetry_space_group_name_H-M    "P 1"
_symmetry_int_tables_number       1

loop_
  _symmetry_equiv_pos_as_xyz
  'x, y, z'

loop_
  _atom_site_label
  _atom_site_occupancy
  _atom_site_fract_x
  _atom_site_fract_y
  _atom_site_fract_z
  _atom_site_thermal_displace_type
  _atom_site_B_iso_or_equiv
  _atom_site_type_symbol
  Zn1      1.0000 0.29350  0.29349  0.11952  Biso   1.000  Zn
  Zn2      1.0000 0.29350  0.29349  0.29349  Biso   1.000  Zn
  Zn3      1.0000 0.11953  0.29349  0.29349  Biso   1.000  Zn
  Zn4      1.0000 0.29350  0.11952  0.29349  Biso   1.000  Zn
  Zn5      1.0000 0.70650  0.70651  0.88048  Biso   1.000  Zn
  Zn6      1.0000 0.70650  0.70651  0.70651  Biso   1.000  Zn
  Zn7      1.0000 0.70650  0.88048  0.70651  Biso   1.000  Zn
  Zn8      1.0000 0.88047  0.70651  0.70651  Biso   1.000  Zn
  H1       1.0000 0.45530  0.45530  0.93570  Biso   1.000  H
  H2       1.0000 0.45530  0.45530  0.15370  Biso   1.000  H
  H3       1.0000 0.93570  0.15370  0.45530  Biso   1.000  H
  H4       1.0000 0.15370  0.93570  0.45530  Biso   1.000  H
  H5       1.0000 0.45530  0.93570  0.15370  Biso   1.000  H
  H6       1.0000 0.45530  0.15370  0.93570  Biso   1.000  H
  H7       1.0000 0.93570  0.45530  0.45530  Biso   1.000  H
  H8       1.0000 0.15370  0.45530  0.45530  Biso   1.000  H
  H9       1.0000 0.45530  0.15370  0.45530  Biso   1.000  H
  H10      1.0000 0.45530  0.93570  0.45530  Biso   1.000  H
  H11      1.0000 0.93570  0.45530  0.15370  Biso   1.000  H
  H12      1.0000 0.15370  0.45530  0.93570  Biso   1.000  H
  H13      1.0000 0.54470  0.54470  0.06430  Biso   1.000  H
  H14      1.0000 0.54470  0.54470  0.84630  Biso   1.000  H
  H15      1.0000 0.84630  0.06430  0.54470  Biso   1.000  H
  H16      1.0000 0.06430  0.84630  0.54470  Biso   1.000  H
  H17      1.0000 0.06430  0.54470  0.84630  Biso   1.000  H
  H18      1.0000 0.84630  0.54470  0.06430  Biso   1.000  H
  H19      1.0000 0.54470  0.06430  0.54470  Biso   1.000  H
  H20      1.0000 0.54470  0.84630  0.54470  Biso   1.000  H
  H21      1.0000 0.84630  0.54470  0.54470  Biso   1.000  H
  H22      1.0000 0.06430  0.54470  0.54470  Biso   1.000  H
  H23      1.0000 0.54470  0.06430  0.84630  Biso   1.000  H
  H24      1.0000 0.54470  0.84630  0.06430  Biso   1.000  H
  C1       1.0000 0.47331  0.47331  0.96231  Biso   1.000  C
  C2       1.0000 0.47331  0.47331  0.09107  Biso   1.000  C
  C3       1.0000 0.96231  0.09107  0.47331  Biso   1.000  C
  C4       1.0000 0.09107  0.96231  0.47331  Biso   1.000  C
  C5       1.0000 0.47331  0.96231  0.09107  Biso   1.000  C
  C6       1.0000 0.47331  0.09107  0.96231  Biso   1.000  C
  C7       1.0000 0.96231  0.47331  0.47331  Biso   1.000  C
  C8       1.0000 0.09107  0.47331  0.47331  Biso   1.000  C
  C9       1.0000 0.47331  0.09107  0.47331  Biso   1.000  C
  C10      1.0000 0.47331  0.96231  0.47331  Biso   1.000  C
  C11      1.0000 0.96231  0.47331  0.09107  Biso   1.000  C
  C12      1.0000 0.09107  0.47331  0.96231  Biso   1.000  C
  C13      1.0000 0.52669  0.52669  0.03769  Biso   1.000  C
  C14      1.0000 0.52669  0.52669  0.90893  Biso   1.000  C
  C15      1.0000 0.90893  0.03769  0.52669  Biso   1.000  C
  C16      1.0000 0.03769  0.90893  0.52669  Biso   1.000  C
  C17      1.0000 0.03769  0.52669  0.90893  Biso   1.000  C
  C18      1.0000 0.90893  0.52669  0.03769  Biso   1.000  C
  C19      1.0000 0.52669  0.03769  0.52669  Biso   1.000  C
  C20      1.0000 0.52669  0.90893  0.52669  Biso   1.000  C
  C21      1.0000 0.90893  0.52669  0.52669  Biso   1.000  C
  C22      1.0000 0.03769  0.52669  0.52669  Biso   1.000  C
  C23      1.0000 0.52669  0.03769  0.90893  Biso   1.000  C
  C24      1.0000 0.52669  0.90893  0.03769  Biso   1.000  C
  C25      1.0000 0.38853  0.38853  0.11147  Biso   1.000  C
  C26      1.0000 0.44625  0.44625  0.05375  Biso   1.000  C
  C27      1.0000 0.11147  0.11147  0.38853  Biso   1.000  C
  C28      1.0000 0.05375  0.05375  0.44625  Biso   1.000  C
  C29      1.0000 0.38853  0.11147  0.11147  Biso   1.000  C
  C30      1.0000 0.44625  0.05375  0.05375  Biso   1.000  C
  C31      1.0000 0.11147  0.38853  0.38853  Biso   1.000  C
  C32      1.0000 0.05375  0.44625  0.44625  Biso   1.000  C
  C33      1.0000 0.38853  0.11147  0.38853  Biso   1.000  C
  C34      1.0000 0.44625  0.05375  0.44625  Biso   1.000  C
  C35      1.0000 0.11147  0.38853  0.11147  Biso   1.000  C
  C36      1.0000 0.05375  0.44625  0.05375  Biso   1.000  C
  C37      1.0000 0.61147  0.61147  0.88853  Biso   1.000  C
  C38      1.0000 0.55375  0.55375  0.94625  Biso   1.000  C
  C39      1.0000 0.88853  0.88853  0.61147  Biso   1.000  C
  C40      1.0000 0.94625  0.94625  0.55375  Biso   1.000  C
  C41      1.0000 0.88853  0.61147  0.88853  Biso   1.000  C
  C42      1.0000 0.94625  0.55375  0.94625  Biso   1.000  C
  C43      1.0000 0.61147  0.88853  0.61147  Biso   1.000  C
  C44      1.0000 0.55375  0.94625  0.55375  Biso   1.000  C
  C45      1.0000 0.88853  0.61147  0.61147  Biso   1.000  C
  C46      1.0000 0.94625  0.55375  0.55375  Biso   1.000  C
  C47      1.0000 0.61147  0.88853  0.88853  Biso   1.000  C
  C48      1.0000 0.55375  0.94625  0.94625  Biso   1.000  C
  O1       1.0000 0.25000  0.25000  0.25000  Biso   1.000  O
  O2       1.0000 0.75000  0.75000  0.75000  Biso   1.000  O
  O3       1.0000 0.36609  0.36609  0.07299  Biso   1.000  O
  O4       1.0000 0.36609  0.36609  0.19483  Biso   1.000  O
  O5       1.0000 0.07299  0.19483  0.36609  Biso   1.000  O
  O6       1.0000 0.19483  0.07299  0.36609  Biso   1.000  O
  O7       1.0000 0.36609  0.07299  0.19483  Biso   1.000  O
  O8       1.0000 0.36609  0.19483  0.07299  Biso   1.000  O
  O9       1.0000 0.07299  0.36609  0.36609  Biso   1.000  O
  O10      1.0000 0.19483  0.36609  0.36609  Biso   1.000  O
  O11      1.0000 0.36609  0.19483  0.36609  Biso   1.000  O
  O12      1.0000 0.36609  0.07299  0.36609  Biso   1.000  O
  O13      1.0000 0.07299  0.36609  0.19483  Biso   1.000  O
  O14      1.0000 0.19483  0.36609  0.07299  Biso   1.000  O
  O15      1.0000 0.63391  0.63391  0.92701  Biso   1.000  O
  O16      1.0000 0.63391  0.63391  0.80517  Biso   1.000  O
  O17      1.0000 0.80517  0.92701  0.63391  Biso   1.000  O
  O18      1.0000 0.92701  0.80517  0.63391  Biso   1.000  O
  O19      1.0000 0.92701  0.63391  0.80517  Biso   1.000  O
  O20      1.0000 0.80517  0.63391  0.92701  Biso   1.000  O
  O21      1.0000 0.63391  0.92701  0.63391  Biso   1.000  O
  O22      1.0000 0.63391  0.80517  0.63391  Biso   1.000  O
  O23      1.0000 0.80517  0.63391  0.63391  Biso   1.000  O
  O24      1.0000 0.92701  0.63391  0.63391  Biso   1.000  O
  O25      1.0000 0.63391  0.92701  0.80517  Biso   1.000  O
  O26      1.0000 0.63391  0.80517  0.92701  Biso   1.000  O
  Zn9      1.0000 0.50261  0.52015  0.33509  Biso   1.000  Zn
  Zn10     1.0000 0.50261  0.52015  0.50902  Biso   1.000  Zn
  Zn11     1.0000 0.32868  0.52015  0.50902  Biso   1.000  Zn
  Zn12     1.0000 0.50261  0.34621  0.50902  Biso   1.000  Zn
  Zn13     1.0000 0.91621  0.93377  0.09658  Biso   1.000  Zn
  Zn14     1.0000 0.91621  0.93377  0.92264  Biso   1.000  Zn
  Zn15     1.0000 0.91621  0.10771  0.92264  Biso   1.000  Zn
  Zn16     1.0000 0.09015  0.93377  0.92264  Biso   1.000  Zn
  H25      1.0000 0.66456  0.68211  0.15114  Biso   1.000  H
  H26      1.0000 0.66456  0.68211  0.37023  Biso   1.000  H
  H27      1.0000 0.14472  0.38136  0.67098  Biso   1.000  H
  H28      1.0000 0.36381  0.16227  0.67098  Biso   1.000  H
  H29      1.0000 0.66456  0.16227  0.37023  Biso   1.000  H
  H30      1.0000 0.66456  0.38136  0.15114  Biso   1.000  H
  H31      1.0000 0.14472  0.68211  0.67098  Biso   1.000  H
  H32      1.0000 0.36381  0.68211  0.67098  Biso   1.000  H
  H33      1.0000 0.66456  0.38136  0.67098  Biso   1.000  H
  H34      1.0000 0.66456  0.16227  0.67098  Biso   1.000  H
  H35      1.0000 0.14472  0.68211  0.37023  Biso   1.000  H
  H36      1.0000 0.36381  0.68211  0.15114  Biso   1.000  H
  H37      1.0000 0.75426  0.77181  0.28052  Biso   1.000  H
  H38      1.0000 0.75426  0.77181  0.06144  Biso   1.000  H
  H39      1.0000 0.05502  0.29165  0.76068  Biso   1.000  H
  H40      1.0000 0.27410  0.07256  0.76068  Biso   1.000  H
  H41      1.0000 0.27410  0.77181  0.06144  Biso   1.000  H
  H42      1.0000 0.05502  0.77181  0.28052  Biso   1.000  H
  H43      1.0000 0.75426  0.29165  0.76068  Biso   1.000  H
  H44      1.0000 0.75426  0.07256  0.76068  Biso   1.000  H
  H45      1.0000 0.05502  0.77181  0.76068  Biso   1.000  H
  H46      1.0000 0.27410  0.77181  0.76068  Biso   1.000  H
  H47      1.0000 0.75426  0.29165  0.06144  Biso   1.000  H
  H48      1.0000 0.75426  0.07256  0.28052  Biso   1.000  H
  C49      1.0000 0.68277  0.70032  0.17812  Biso   1.000  C
  C50      1.0000 0.68277  0.70032  0.30682  Biso   1.000  C
  C51      1.0000 0.17170  0.31795  0.68919  Biso   1.000  C
  C52      1.0000 0.30040  0.18925  0.68919  Biso   1.000  C
  C53      1.0000 0.68277  0.18925  0.30682  Biso   1.000  C
  C54      1.0000 0.68277  0.31795  0.17812  Biso   1.000  C
  C55      1.0000 0.17170  0.70032  0.68919  Biso   1.000  C
  C56      1.0000 0.30040  0.70032  0.68919  Biso   1.000  C
  C57      1.0000 0.68277  0.31795  0.68919  Biso   1.000  C
  C58      1.0000 0.68277  0.18925  0.68919  Biso   1.000  C
  C59      1.0000 0.17170  0.70032  0.30682  Biso   1.000  C
  C60      1.0000 0.30040  0.70032  0.17812  Biso   1.000  C
  C61      1.0000 0.73605  0.75360  0.25354  Biso   1.000  C
  C62      1.0000 0.73605  0.75360  0.12484  Biso   1.000  C
  C63      1.0000 0.11842  0.26467  0.74247  Biso   1.000  C
  C64      1.0000 0.24712  0.13597  0.74247  Biso   1.000  C
  C65      1.0000 0.24712  0.75360  0.12484  Biso   1.000  C
  C66      1.0000 0.11842  0.75360  0.25354  Biso   1.000  C
  C67      1.0000 0.73605  0.26467  0.74247  Biso   1.000  C
  C68      1.0000 0.73605  0.13597  0.74247  Biso   1.000  C
  C69      1.0000 0.11842  0.75360  0.74247  Biso   1.000  C
  C70      1.0000 0.24712  0.75360  0.74247  Biso   1.000  C
  C71      1.0000 0.73605  0.26467  0.12484  Biso   1.000  C
  C72      1.0000 0.73605  0.13597  0.25354  Biso   1.000  C
  C73      1.0000 0.59768  0.61523  0.32698  Biso   1.000  C
  C74      1.0000 0.65572  0.67327  0.26894  Biso   1.000  C
  C75      1.0000 0.32056  0.33811  0.60410  Biso   1.000  C
  C76      1.0000 0.26252  0.28007  0.66214  Biso   1.000  C
  C77      1.0000 0.59768  0.33811  0.32698  Biso   1.000  C
  C78      1.0000 0.65572  0.28007  0.26894  Biso   1.000  C
  C79      1.0000 0.32056  0.61523  0.60410  Biso   1.000  C
  C80      1.0000 0.26252  0.67327  0.66214  Biso   1.000  C
  C81      1.0000 0.59768  0.33811  0.60410  Biso   1.000  C
  C82      1.0000 0.65572  0.28007  0.66214  Biso   1.000  C
  C83      1.0000 0.32056  0.61523  0.32698  Biso   1.000  C
  C84      1.0000 0.26252  0.67327  0.26894  Biso   1.000  C
  C85      1.0000 0.82114  0.83869  0.10469  Biso   1.000  C
  C86      1.0000 0.76311  0.78065  0.16272  Biso   1.000  C
  C87      1.0000 0.09827  0.11582  0.82756  Biso   1.000  C
  C88      1.0000 0.15631  0.17385  0.76952  Biso   1.000  C
  C89      1.0000 0.09827  0.83869  0.10469  Biso   1.000  C
  C90      1.0000 0.15631  0.78065  0.16272  Biso   1.000  C
  C91      1.0000 0.82114  0.11582  0.82756  Biso   1.000  C
  C92      1.0000 0.76311  0.17385  0.76952  Biso   1.000  C
  C93      1.0000 0.09827  0.83869  0.82756  Biso   1.000  C
  C94      1.0000 0.15630  0.78065  0.76952  Biso   1.000  C
  C95      1.0000 0.82114  0.11582  0.10469  Biso   1.000  C
  C96      1.0000 0.76311  0.17385  0.16272  Biso   1.000  C
  O27      1.0000 0.45912  0.47667  0.46554  Biso   1.000  O
  O28      1.0000 0.95971  0.97725  0.96612  Biso   1.000  O
  O29      1.0000 0.57539  0.59293  0.28814  Biso   1.000  O
  O30      1.0000 0.57539  0.59293  0.41040  Biso   1.000  O
  O31      1.0000 0.28172  0.42153  0.58180  Biso   1.000  O
  O32      1.0000 0.40399  0.29927  0.58180  Biso   1.000  O
  O33      1.0000 0.57539  0.29927  0.41040  Biso   1.000  O
  O34      1.0000 0.57539  0.42153  0.28814  Biso   1.000  O
  O35      1.0000 0.28172  0.59293  0.58180  Biso   1.000  O
  O36      1.0000 0.40399  0.59293  0.58180  Biso   1.000  O
  O37      1.0000 0.57539  0.42153  0.58180  Biso   1.000  O
  O38      1.0000 0.57539  0.29927  0.58180  Biso   1.000  O
  O39      1.0000 0.28172  0.59293  0.41040  Biso   1.000  O
  O40      1.0000 0.40399  0.59293  0.28814  Biso   1.000  O
  O41      1.0000 0.84344  0.86099  0.14352  Biso   1.000  O
  O42      1.0000 0.84344  0.86099  0.02126  Biso   1.000  O
  O43      1.0000 0.01484  0.15465  0.84986  Biso   1.000  O
  O44      1.0000 0.13710  0.03239  0.84986  Biso   1.000  O
  O45      1.0000 0.13710  0.86099  0.02126  Biso   1.000  O
  O46      1.0000 0.01484  0.86099  0.14352  Biso   1.000  O
  O47      1.0000 0.84344  0.15465  0.84986  Biso   1.000  O
  O48      1.0000 0.84344  0.03239  0.84986  Biso   1.000  O
  O49      1.0000 0.01484  0.86099  0.84986  Biso   1.000  O
  O50      1.0000 0.13710  0.86099  0.84986  Biso   1.000  O
  O51      1.0000 0.84344  0.15465  0.02126  Biso   1.000  O
