data_image0
_cell_length_a       18.2359
_cell_length_b       18.2359
_cell_length_c       18.2359
_cell_angle_alpha    60
_cell_angle_beta     60
_cell_angle_gamma    60

_symmetry_space_group_name_H-M    "P 1"
_symmetry_int_tables_number       1

loop_
  _symmetry_equiv_pos_as_xyz
  'x, y, z'

loop_
  _atom_site_label
  _atom_site_occupancy
  _atom_site_fract_x
  _atom_site_fract_y
  _atom_site_fract_z
  _atom_site_thermal_displace_type
  _atom_site_B_iso_or_equiv
  _atom_site_type_symbol
  Zn1      1.0000 0.29356  0.29357  0.11930  Biso   1.000  Zn
  Zn2      1.0000 0.29356  0.29357  0.29357  Biso   1.000  Zn
  Zn3      1.0000 0.11929  0.29357  0.29357  Biso   1.000  Zn
  Zn4      1.0000 0.29356  0.11930  0.29357  Biso   1.000  Zn
  Zn5      1.0000 0.70644  0.70643  0.88070  Biso   1.000  Zn
  Zn6      1.0000 0.70644  0.70643  0.70643  Biso   1.000  Zn
  Zn7      1.0000 0.70644  0.88070  0.70643  Biso   1.000  Zn
  Zn8      1.0000 0.88071  0.70643  0.70643  Biso   1.000  Zn
  H1       1.0000 0.45600  0.45600  0.93640  Biso   1.000  H
  H2       1.0000 0.45600  0.45600  0.15160  Biso   1.000  H
  H3       1.0000 0.93640  0.15160  0.45600  Biso   1.000  H
  H4       1.0000 0.15160  0.93640  0.45600  Biso   1.000  H
  H5       1.0000 0.45600  0.93640  0.15160  Biso   1.000  H
  H6       1.0000 0.45600  0.15160  0.93640  Biso   1.000  H
  H7       1.0000 0.93640  0.45600  0.45600  Biso   1.000  H
  H8       1.0000 0.15160  0.45600  0.45600  Biso   1.000  H
  H9       1.0000 0.45600  0.15160  0.45600  Biso   1.000  H
  H10      1.0000 0.45600  0.93640  0.45600  Biso   1.000  H
  H11      1.0000 0.93640  0.45600  0.15160  Biso   1.000  H
  H12      1.0000 0.15160  0.45600  0.93640  Biso   1.000  H
  H13      1.0000 0.54400  0.54400  0.06360  Biso   1.000  H
  H14      1.0000 0.54400  0.54400  0.84840  Biso   1.000  H
  H15      1.0000 0.84840  0.06360  0.54400  Biso   1.000  H
  H16      1.0000 0.06360  0.84840  0.54400  Biso   1.000  H
  H17      1.0000 0.06360  0.54400  0.84840  Biso   1.000  H
  H18      1.0000 0.84840  0.54400  0.06360  Biso   1.000  H
  H19      1.0000 0.54400  0.06360  0.54400  Biso   1.000  H
  H20      1.0000 0.54400  0.84840  0.54400  Biso   1.000  H
  H21      1.0000 0.84840  0.54400  0.54400  Biso   1.000  H
  H22      1.0000 0.06360  0.54400  0.54400  Biso   1.000  H
  H23      1.0000 0.54400  0.06360  0.84840  Biso   1.000  H
  H24      1.0000 0.54400  0.84840  0.06360  Biso   1.000  H
  C1       1.0000 0.47360  0.47360  0.96320  Biso   1.000  C
  C2       1.0000 0.47360  0.47360  0.08960  Biso   1.000  C
  C3       1.0000 0.96320  0.08960  0.47360  Biso   1.000  C
  C4       1.0000 0.08960  0.96320  0.47360  Biso   1.000  C
  C5       1.0000 0.47360  0.96320  0.08960  Biso   1.000  C
  C6       1.0000 0.47360  0.08960  0.96320  Biso   1.000  C
  C7       1.0000 0.96320  0.47360  0.47360  Biso   1.000  C
  C8       1.0000 0.08960  0.47360  0.47360  Biso   1.000  C
  C9       1.0000 0.47360  0.08960  0.47360  Biso   1.000  C
  C10      1.0000 0.47360  0.96320  0.47360  Biso   1.000  C
  C11      1.0000 0.96320  0.47360  0.08960  Biso   1.000  C
  C12      1.0000 0.08960  0.47360  0.96320  Biso   1.000  C
  C13      1.0000 0.52640  0.52640  0.03680  Biso   1.000  C
  C14      1.0000 0.52640  0.52640  0.91040  Biso   1.000  C
  C15      1.0000 0.91040  0.03680  0.52640  Biso   1.000  C
  C16      1.0000 0.03680  0.91040  0.52640  Biso   1.000  C
  C17      1.0000 0.03680  0.52640  0.91040  Biso   1.000  C
  C18      1.0000 0.91040  0.52640  0.03680  Biso   1.000  C
  C19      1.0000 0.52640  0.03680  0.52640  Biso   1.000  C
  C20      1.0000 0.52640  0.91040  0.52640  Biso   1.000  C
  C21      1.0000 0.91040  0.52640  0.52640  Biso   1.000  C
  C22      1.0000 0.03680  0.52640  0.52640  Biso   1.000  C
  C23      1.0000 0.52640  0.03680  0.91040  Biso   1.000  C
  C24      1.0000 0.52640  0.91040  0.03680  Biso   1.000  C
  C25      1.0000 0.38860  0.38860  0.11140  Biso   1.000  C
  C26      1.0000 0.44630  0.44630  0.05370  Biso   1.000  C
  C27      1.0000 0.11140  0.11140  0.38860  Biso   1.000  C
  C28      1.0000 0.05370  0.05370  0.44630  Biso   1.000  C
  C29      1.0000 0.38860  0.11140  0.11140  Biso   1.000  C
  C30      1.0000 0.44630  0.05370  0.05370  Biso   1.000  C
  C31      1.0000 0.11140  0.38860  0.38860  Biso   1.000  C
  C32      1.0000 0.05370  0.44630  0.44630  Biso   1.000  C
  C33      1.0000 0.38860  0.11140  0.38860  Biso   1.000  C
  C34      1.0000 0.44630  0.05370  0.44630  Biso   1.000  C
  C35      1.0000 0.11140  0.38860  0.11140  Biso   1.000  C
  C36      1.0000 0.05370  0.44630  0.05370  Biso   1.000  C
  C37      1.0000 0.61140  0.61140  0.88860  Biso   1.000  C
  C38      1.0000 0.55370  0.55370  0.94630  Biso   1.000  C
  C39      1.0000 0.88860  0.88860  0.61140  Biso   1.000  C
  C40      1.0000 0.94630  0.94630  0.55370  Biso   1.000  C
  C41      1.0000 0.88860  0.61140  0.88860  Biso   1.000  C
  C42      1.0000 0.94630  0.55370  0.94630  Biso   1.000  C
  C43      1.0000 0.61140  0.88860  0.61140  Biso   1.000  C
  C44      1.0000 0.55370  0.94630  0.55370  Biso   1.000  C
  C45      1.0000 0.88860  0.61140  0.61140  Biso   1.000  C
  C46      1.0000 0.94630  0.55370  0.55370  Biso   1.000  C
  C47      1.0000 0.61140  0.88860  0.88860  Biso   1.000  C
  C48      1.0000 0.55370  0.94630  0.94630  Biso   1.000  C
  O1       1.0000 0.25000  0.25000  0.25000  Biso   1.000  O
  O2       1.0000 0.75000  0.75000  0.75000  Biso   1.000  O
  O3       1.0000 0.36605  0.36605  0.07323  Biso   1.000  O
  O4       1.0000 0.36605  0.36605  0.19467  Biso   1.000  O
  O5       1.0000 0.07323  0.19467  0.36605  Biso   1.000  O
  O6       1.0000 0.19467  0.07323  0.36605  Biso   1.000  O
  O7       1.0000 0.36605  0.07323  0.19467  Biso   1.000  O
  O8       1.0000 0.36605  0.19467  0.07323  Biso   1.000  O
  O9       1.0000 0.07323  0.36605  0.36605  Biso   1.000  O
  O10      1.0000 0.19467  0.36605  0.36605  Biso   1.000  O
  O11      1.0000 0.36605  0.19467  0.36605  Biso   1.000  O
  O12      1.0000 0.36605  0.07323  0.36605  Biso   1.000  O
  O13      1.0000 0.07323  0.36605  0.19467  Biso   1.000  O
  O14      1.0000 0.19467  0.36605  0.07323  Biso   1.000  O
  O15      1.0000 0.63395  0.63395  0.92677  Biso   1.000  O
  O16      1.0000 0.63395  0.63395  0.80533  Biso   1.000  O
  O17      1.0000 0.80533  0.92677  0.63395  Biso   1.000  O
  O18      1.0000 0.92677  0.80533  0.63395  Biso   1.000  O
  O19      1.0000 0.92677  0.63395  0.80533  Biso   1.000  O
  O20      1.0000 0.80533  0.63395  0.92677  Biso   1.000  O
  O21      1.0000 0.63395  0.92677  0.63395  Biso   1.000  O
  O22      1.0000 0.63395  0.80533  0.63395  Biso   1.000  O
  O23      1.0000 0.80533  0.63395  0.63395  Biso   1.000  O
  O24      1.0000 0.92677  0.63395  0.63395  Biso   1.000  O
  O25      1.0000 0.63395  0.92677  0.80533  Biso   1.000  O
  O26      1.0000 0.63395  0.80533  0.92677  Biso   1.000  O
  Zn9      1.0000 0.99506  0.97537  0.87310  Biso   1.000  Zn
  Zn10     1.0000 0.99510  0.14785  0.87305  Biso   1.000  Zn
  Zn11     1.0000 0.16758  0.97537  0.87310  Biso   1.000  Zn
  Zn12     1.0000 0.99511  0.97532  0.04557  Biso   1.000  Zn
  Zn13     1.0000 0.57902  0.56393  0.46167  Biso   1.000  Zn
  Zn14     1.0000 0.57897  0.39146  0.46172  Biso   1.000  Zn
  Zn15     1.0000 0.40650  0.56393  0.46167  Biso   1.000  Zn
  Zn16     1.0000 0.57897  0.56398  0.28919  Biso   1.000  Zn
  C49      1.0000 0.81547  0.17532  0.69446  Biso   1.000  C
  C50      1.0000 0.19527  0.79653  0.69246  Biso   1.000  C
  C51      1.0000 0.81487  0.79752  0.07306  Biso   1.000  C
  C52      1.0000 0.81649  0.31081  0.69347  Biso   1.000  C
  C53      1.0000 0.81449  0.31182  0.07326  Biso   1.000  C
  C54      1.0000 0.19508  0.31062  0.69286  Biso   1.000  C
  C55      1.0000 0.32584  0.79674  0.07305  Biso   1.000  C
  C56      1.0000 0.32685  0.79473  0.69425  Biso   1.000  C
  C57      1.0000 0.32565  0.17533  0.69525  Biso   1.000  C
  C58      1.0000 0.19035  0.79574  0.20855  Biso   1.000  C
  C59      1.0000 0.81155  0.17553  0.20955  Biso   1.000  C
  C60      1.0000 0.81255  0.79513  0.20836  Biso   1.000  C
  C61      1.0000 0.75860  0.36398  0.64030  Biso   1.000  C
  C62      1.0000 0.37880  0.74278  0.64230  Biso   1.000  C
  C63      1.0000 0.75920  0.74178  0.26170  Biso   1.000  C
  C64      1.0000 0.75759  0.22849  0.64129  Biso   1.000  C
  C65      1.0000 0.75959  0.22748  0.26151  Biso   1.000  C
  C66      1.0000 0.37899  0.22868  0.64190  Biso   1.000  C
  C67      1.0000 0.24823  0.74257  0.26171  Biso   1.000  C
  C68      1.0000 0.24723  0.74457  0.64051  Biso   1.000  C
  C69      1.0000 0.24843  0.36397  0.63951  Biso   1.000  C
  C70      1.0000 0.38373  0.74357  0.12622  Biso   1.000  C
  C71      1.0000 0.76253  0.36378  0.12521  Biso   1.000  C
  C72      1.0000 0.76153  0.74418  0.12640  Biso   1.000  C
  C73      1.0000 0.84293  0.21375  0.72093  Biso   1.000  C
  C74      1.0000 0.90134  0.15535  0.77933  Biso   1.000  C
  C75      1.0000 0.23349  0.82320  0.11148  Biso   1.000  C
  C76      1.0000 0.17509  0.88161  0.05307  Biso   1.000  C
  C77      1.0000 0.73114  0.32555  0.61383  Biso   1.000  C
  C78      1.0000 0.67274  0.38396  0.55543  Biso   1.000  C
  C79      1.0000 0.34059  0.71610  0.22329  Biso   1.000  C
  C80      1.0000 0.39899  0.65770  0.28169  Biso   1.000  C
  C81      1.0000 0.84274  0.82300  0.11167  Biso   1.000  C
  C82      1.0000 0.90087  0.88113  0.05355  Biso   1.000  C
  C83      1.0000 0.23368  0.21395  0.72073  Biso   1.000  C
  C84      1.0000 0.17556  0.15583  0.77885  Biso   1.000  C
  C85      1.0000 0.73134  0.71630  0.22309  Biso   1.000  C
  C86      1.0000 0.67321  0.65818  0.28121  Biso   1.000  C
  C87      1.0000 0.34039  0.32535  0.61403  Biso   1.000  C
  C88      1.0000 0.39852  0.38348  0.55591  Biso   1.000  C
  C89      1.0000 0.23389  0.82280  0.72053  Biso   1.000  C
  C90      1.0000 0.17576  0.88093  0.77865  Biso   1.000  C
  C91      1.0000 0.84253  0.21415  0.11187  Biso   1.000  C
  C92      1.0000 0.90066  0.15603  0.05375  Biso   1.000  C
  C93      1.0000 0.34019  0.71650  0.61423  Biso   1.000  C
  C94      1.0000 0.39831  0.65838  0.55611  Biso   1.000  C
  C95      1.0000 0.73154  0.32515  0.22289  Biso   1.000  C
  C96      1.0000 0.67342  0.38328  0.28101  Biso   1.000  C
  O27      1.0000 0.92383  0.07151  0.80023  Biso   1.000  O
  O28      1.0000 0.92191  0.90410  0.97007  Biso   1.000  O
  O29      1.0000 0.09083  0.90374  0.80065  Biso   1.000  O
  O30      1.0000 0.92224  0.19580  0.80182  Biso   1.000  O
  O31      1.0000 0.09207  0.19530  0.79989  Biso   1.000  O
  O32      1.0000 0.92266  0.19616  0.96881  Biso   1.000  O
  O33      1.0000 0.21553  0.90251  0.96923  Biso   1.000  O
  O34      1.0000 0.21503  0.07234  0.80182  Biso   1.000  O
  O35      1.0000 0.21589  0.90292  0.80147  Biso   1.000  O
  O36      1.0000 0.09124  0.90410  0.09352  Biso   1.000  O
  O37      1.0000 0.92384  0.90217  0.09302  Biso   1.000  O
  O38      1.0000 0.92347  0.07109  0.09388  Biso   1.000  O
  O39      1.0000 0.65024  0.46780  0.53453  Biso   1.000  O
  O40      1.0000 0.65217  0.63521  0.36470  Biso   1.000  O
  O41      1.0000 0.48325  0.63557  0.53411  Biso   1.000  O
  O42      1.0000 0.65184  0.34351  0.53294  Biso   1.000  O
  O43      1.0000 0.48200  0.34400  0.53487  Biso   1.000  O
  O44      1.0000 0.65142  0.34315  0.36595  Biso   1.000  O
  O45      1.0000 0.35854  0.63680  0.36553  Biso   1.000  O
  O46      1.0000 0.35904  0.46696  0.53294  Biso   1.000  O
  O47      1.0000 0.35818  0.63638  0.53330  Biso   1.000  O
  O48      1.0000 0.48283  0.63520  0.24124  Biso   1.000  O
  O49      1.0000 0.65024  0.63714  0.24174  Biso   1.000  O
  O50      1.0000 0.65060  0.46821  0.24088  Biso   1.000  O
  O51      1.0000 0.03821  0.01848  0.91620  Biso   1.000  O
  O52      1.0000 0.53587  0.52083  0.41856  Biso   1.000  O
  H25      1.0000 0.11903  0.81937  0.71383  Biso   1.000  H
  H26      1.0000 0.35888  0.81610  0.71710  Biso   1.000  H
  H27      1.0000 0.45504  0.71994  0.62093  Biso   1.000  H
  H28      1.0000 0.21520  0.72320  0.61767  Biso   1.000  H
  H29      1.0000 0.35768  0.09911  0.71834  Biso   1.000  H
  H30      1.0000 0.45522  0.19665  0.62079  Biso   1.000  H
  H31      1.0000 0.83598  0.82061  0.99683  Biso   1.000  H
  H32      1.0000 0.73844  0.72307  0.09438  Biso   1.000  H
  H33      1.0000 0.83900  0.34285  0.71515  Biso   1.000  H
  H34      1.0000 0.83585  0.34385  0.99702  Biso   1.000  H
  H35      1.0000 0.45997  0.72188  0.09418  Biso   1.000  H
  H36      1.0000 0.73969  0.44001  0.09318  Biso   1.000  H
  H37      1.0000 0.11885  0.34265  0.71397  Biso   1.000  H
  H38      1.0000 0.21640  0.44020  0.61642  Biso   1.000  H
  H39      1.0000 0.83564  0.81624  0.24039  Biso   1.000  H
  H40      1.0000 0.73809  0.71869  0.33793  Biso   1.000  H
  H41      1.0000 0.21620  0.72005  0.33795  Biso   1.000  H
  H42      1.0000 0.83439  0.09929  0.24158  Biso   1.000  H
  H43      1.0000 0.73822  0.19546  0.33774  Biso   1.000  H
  H44      1.0000 0.11411  0.81742  0.24058  Biso   1.000  H
  H45      1.0000 0.73508  0.19645  0.61961  Biso   1.000  H
  H46      1.0000 0.83716  0.09909  0.71698  Biso   1.000  H
  H47      1.0000 0.73691  0.44022  0.61779  Biso   1.000  H
