data_image0
_cell_length_a       18.2455
_cell_length_b       18.2455
_cell_length_c       18.2455
_cell_angle_alpha    60
_cell_angle_beta     60
_cell_angle_gamma    60

_symmetry_space_group_name_H-M    "P 1"
_symmetry_int_tables_number       1

loop_
  _symmetry_equiv_pos_as_xyz
  'x, y, z'

loop_
  _atom_site_label
  _atom_site_occupancy
  _atom_site_fract_x
  _atom_site_fract_y
  _atom_site_fract_z
  _atom_site_thermal_displace_type
  _atom_site_B_iso_or_equiv
  _atom_site_type_symbol
  Zn1      1.0000 0.29354  0.29354  0.11938  Biso   1.000  Zn
  Zn2      1.0000 0.29354  0.29354  0.29354  Biso   1.000  Zn
  Zn3      1.0000 0.11938  0.29354  0.29354  Biso   1.000  Zn
  Zn4      1.0000 0.29354  0.11938  0.29354  Biso   1.000  Zn
  Zn5      1.0000 0.70646  0.70646  0.88062  Biso   1.000  Zn
  Zn6      1.0000 0.70646  0.70646  0.70646  Biso   1.000  Zn
  Zn7      1.0000 0.70646  0.88062  0.70646  Biso   1.000  Zn
  Zn8      1.0000 0.88062  0.70646  0.70646  Biso   1.000  Zn
  H1       1.0000 0.45580  0.45580  0.93620  Biso   1.000  H
  H2       1.0000 0.45580  0.45580  0.15220  Biso   1.000  H
  H3       1.0000 0.93620  0.15220  0.45580  Biso   1.000  H
  H4       1.0000 0.15220  0.93620  0.45580  Biso   1.000  H
  H5       1.0000 0.45580  0.93620  0.15220  Biso   1.000  H
  H6       1.0000 0.45580  0.15220  0.93620  Biso   1.000  H
  H7       1.0000 0.93620  0.45580  0.45580  Biso   1.000  H
  H8       1.0000 0.15220  0.45580  0.45580  Biso   1.000  H
  H9       1.0000 0.45580  0.15220  0.45580  Biso   1.000  H
  H10      1.0000 0.45580  0.93620  0.45580  Biso   1.000  H
  H11      1.0000 0.93620  0.45580  0.15220  Biso   1.000  H
  H12      1.0000 0.15220  0.45580  0.93620  Biso   1.000  H
  H13      1.0000 0.54420  0.54420  0.06380  Biso   1.000  H
  H14      1.0000 0.54420  0.54420  0.84780  Biso   1.000  H
  H15      1.0000 0.84780  0.06380  0.54420  Biso   1.000  H
  H16      1.0000 0.06380  0.84780  0.54420  Biso   1.000  H
  H17      1.0000 0.06380  0.54420  0.84780  Biso   1.000  H
  H18      1.0000 0.84780  0.54420  0.06380  Biso   1.000  H
  H19      1.0000 0.54420  0.06380  0.54420  Biso   1.000  H
  H20      1.0000 0.54420  0.84780  0.54420  Biso   1.000  H
  H21      1.0000 0.84780  0.54420  0.54420  Biso   1.000  H
  H22      1.0000 0.06380  0.54420  0.54420  Biso   1.000  H
  H23      1.0000 0.54420  0.06380  0.84780  Biso   1.000  H
  H24      1.0000 0.54420  0.84780  0.06380  Biso   1.000  H
  C1       1.0000 0.47345  0.47345  0.96303  Biso   1.000  C
  C2       1.0000 0.47345  0.47345  0.09007  Biso   1.000  C
  C3       1.0000 0.96303  0.09007  0.47345  Biso   1.000  C
  C4       1.0000 0.09007  0.96303  0.47345  Biso   1.000  C
  C5       1.0000 0.47345  0.96303  0.09007  Biso   1.000  C
  C6       1.0000 0.47345  0.09007  0.96303  Biso   1.000  C
  C7       1.0000 0.96303  0.47345  0.47345  Biso   1.000  C
  C8       1.0000 0.09007  0.47345  0.47345  Biso   1.000  C
  C9       1.0000 0.47345  0.09007  0.47345  Biso   1.000  C
  C10      1.0000 0.47345  0.96303  0.47345  Biso   1.000  C
  C11      1.0000 0.96303  0.47345  0.09007  Biso   1.000  C
  C12      1.0000 0.09007  0.47345  0.96303  Biso   1.000  C
  C13      1.0000 0.52655  0.52655  0.03697  Biso   1.000  C
  C14      1.0000 0.52655  0.52655  0.90993  Biso   1.000  C
  C15      1.0000 0.90993  0.03697  0.52655  Biso   1.000  C
  C16      1.0000 0.03697  0.90993  0.52655  Biso   1.000  C
  C17      1.0000 0.03697  0.52655  0.90993  Biso   1.000  C
  C18      1.0000 0.90993  0.52655  0.03697  Biso   1.000  C
  C19      1.0000 0.52655  0.03697  0.52655  Biso   1.000  C
  C20      1.0000 0.52655  0.90993  0.52655  Biso   1.000  C
  C21      1.0000 0.90993  0.52655  0.52655  Biso   1.000  C
  C22      1.0000 0.03697  0.52655  0.52655  Biso   1.000  C
  C23      1.0000 0.52655  0.03697  0.90993  Biso   1.000  C
  C24      1.0000 0.52655  0.90993  0.03697  Biso   1.000  C
  C25      1.0000 0.38857  0.38857  0.11143  Biso   1.000  C
  C26      1.0000 0.44620  0.44620  0.05380  Biso   1.000  C
  C27      1.0000 0.11143  0.11143  0.38857  Biso   1.000  C
  C28      1.0000 0.05380  0.05380  0.44620  Biso   1.000  C
  C29      1.0000 0.38857  0.11143  0.11143  Biso   1.000  C
  C30      1.0000 0.44620  0.05380  0.05380  Biso   1.000  C
  C31      1.0000 0.11143  0.38857  0.38857  Biso   1.000  C
  C32      1.0000 0.05380  0.44620  0.44620  Biso   1.000  C
  C33      1.0000 0.38857  0.11143  0.38857  Biso   1.000  C
  C34      1.0000 0.44620  0.05380  0.44620  Biso   1.000  C
  C35      1.0000 0.11143  0.38857  0.11143  Biso   1.000  C
  C36      1.0000 0.05380  0.44620  0.05380  Biso   1.000  C
  C37      1.0000 0.61143  0.61143  0.88857  Biso   1.000  C
  C38      1.0000 0.55380  0.55380  0.94620  Biso   1.000  C
  C39      1.0000 0.88857  0.88857  0.61143  Biso   1.000  C
  C40      1.0000 0.94620  0.94620  0.55380  Biso   1.000  C
  C41      1.0000 0.88857  0.61143  0.88857  Biso   1.000  C
  C42      1.0000 0.94620  0.55380  0.94620  Biso   1.000  C
  C43      1.0000 0.61143  0.88857  0.61143  Biso   1.000  C
  C44      1.0000 0.55380  0.94620  0.55380  Biso   1.000  C
  C45      1.0000 0.88857  0.61143  0.61143  Biso   1.000  C
  C46      1.0000 0.94620  0.55380  0.55380  Biso   1.000  C
  C47      1.0000 0.61143  0.88857  0.88857  Biso   1.000  C
  C48      1.0000 0.55380  0.94620  0.94620  Biso   1.000  C
  O1       1.0000 0.25000  0.25000  0.25000  Biso   1.000  O
  O2       1.0000 0.75000  0.75000  0.75000  Biso   1.000  O
  O3       1.0000 0.36603  0.36603  0.07311  Biso   1.000  O
  O4       1.0000 0.36603  0.36603  0.19483  Biso   1.000  O
  O5       1.0000 0.07311  0.19483  0.36603  Biso   1.000  O
  O6       1.0000 0.19483  0.07311  0.36603  Biso   1.000  O
  O7       1.0000 0.36603  0.07311  0.19483  Biso   1.000  O
  O8       1.0000 0.36603  0.19483  0.07311  Biso   1.000  O
  O9       1.0000 0.07311  0.36603  0.36603  Biso   1.000  O
  O10      1.0000 0.19483  0.36603  0.36603  Biso   1.000  O
  O11      1.0000 0.36603  0.19483  0.36603  Biso   1.000  O
  O12      1.0000 0.36603  0.07311  0.36603  Biso   1.000  O
  O13      1.0000 0.07311  0.36603  0.19483  Biso   1.000  O
  O14      1.0000 0.19483  0.36603  0.07311  Biso   1.000  O
  O15      1.0000 0.63397  0.63397  0.92689  Biso   1.000  O
  O16      1.0000 0.63397  0.63397  0.80517  Biso   1.000  O
  O17      1.0000 0.80517  0.92689  0.63397  Biso   1.000  O
  O18      1.0000 0.92689  0.80517  0.63397  Biso   1.000  O
  O19      1.0000 0.92689  0.63397  0.80517  Biso   1.000  O
  O20      1.0000 0.80517  0.63397  0.92689  Biso   1.000  O
  O21      1.0000 0.63397  0.92689  0.63397  Biso   1.000  O
  O22      1.0000 0.63397  0.80517  0.63397  Biso   1.000  O
  O23      1.0000 0.80517  0.63397  0.63397  Biso   1.000  O
  O24      1.0000 0.92689  0.63397  0.63397  Biso   1.000  O
  O25      1.0000 0.63397  0.92689  0.80517  Biso   1.000  O
  O26      1.0000 0.63397  0.80517  0.92689  Biso   1.000  O
  Zn9      1.0000 0.95569  0.10420  0.06713  Biso   1.000  Zn
  Zn10     1.0000 0.36804  0.69184  0.47950  Biso   1.000  Zn
  Zn11     1.0000 0.36804  0.51742  0.47950  Biso   1.000  Zn
  Zn12     1.0000 0.95569  0.92978  0.06713  Biso   1.000  Zn
  Zn13     1.0000 0.95543  0.10440  0.89256  Biso   1.000  Zn
  Zn14     1.0000 0.78092  0.10427  0.06734  Biso   1.000  Zn
  Zn15     1.0000 0.36830  0.51722  0.65407  Biso   1.000  Zn
  Zn16     1.0000 0.54281  0.51735  0.47929  Biso   1.000  Zn
  H25      1.0000 0.11698  0.74715  0.92568  Biso   1.000  H
  H26      1.0000 0.11202  0.96299  0.71169  Biso   1.000  H
  H27      1.0000 0.81599  0.74914  0.22830  Biso   1.000  H
  H28      1.0000 0.59516  0.96416  0.23360  Biso   1.000  H
  H29      1.0000 0.11869  0.96356  0.22650  Biso   1.000  H
  H30      1.0000 0.20675  0.35463  0.62095  Biso   1.000  H
  H31      1.0000 0.21171  0.35152  0.83494  Biso   1.000  H
  H32      1.0000 0.50774  0.35825  0.31833  Biso   1.000  H
  H33      1.0000 0.72856  0.35775  0.31303  Biso   1.000  H
  H34      1.0000 0.20503  0.87358  0.32013  Biso   1.000  H
  H35      1.0000 0.20675  0.87446  0.62095  Biso   1.000  H
  H36      1.0000 0.21171  0.65863  0.83494  Biso   1.000  H
  H37      1.0000 0.50774  0.87247  0.31833  Biso   1.000  H
  H38      1.0000 0.72857  0.65745  0.31303  Biso   1.000  H
  H39      1.0000 0.20503  0.65805  0.32013  Biso   1.000  H
  H40      1.0000 0.11698  0.26698  0.92568  Biso   1.000  H
  H41      1.0000 0.11202  0.27010  0.71169  Biso   1.000  H
  H42      1.0000 0.81599  0.26337  0.22830  Biso   1.000  H
  H43      1.0000 0.59516  0.26387  0.23360  Biso   1.000  H
  H44      1.0000 0.11870  0.74804  0.22650  Biso   1.000  H
  H45      1.0000 0.59905  0.26568  0.92638  Biso   1.000  H
  H46      1.0000 0.81221  0.26840  0.70779  Biso   1.000  H
  H47      1.0000 0.72468  0.35593  0.62025  Biso   1.000  H
  H48      1.0000 0.51151  0.35322  0.83884  Biso   1.000  H
  C49      1.0000 0.05080  0.92006  0.88696  Biso   1.000  C
  C50      1.0000 0.10942  0.86305  0.82654  Biso   1.000  C
  C51      1.0000 0.13589  0.77367  0.86335  Biso   1.000  C
  C52      1.0000 0.13303  0.90076  0.73730  Biso   1.000  C
  C53      1.0000 0.77332  0.92125  0.16368  Biso   1.000  C
  C54      1.0000 0.71620  0.86553  0.22060  Biso   1.000  C
  C55      1.0000 0.75387  0.77485  0.24581  Biso   1.000  C
  C56      1.0000 0.62277  0.90214  0.24921  Biso   1.000  C
  C57      1.0000 0.13500  0.90144  0.24601  Biso   1.000  C
  C58      1.0000 0.27292  0.42265  0.65967  Biso   1.000  C
  C59      1.0000 0.21430  0.36383  0.72009  Biso   1.000  C
  C60      1.0000 0.18784  0.33772  0.68328  Biso   1.000  C
  C61      1.0000 0.19070  0.33591  0.80933  Biso   1.000  C
  C62      1.0000 0.55041  0.42307  0.38295  Biso   1.000  C
  C63      1.0000 0.60752  0.36715  0.32603  Biso   1.000  C
  C64      1.0000 0.56986  0.33934  0.30082  Biso   1.000  C
  C65      1.0000 0.70095  0.33894  0.29742  Biso   1.000  C
  C66      1.0000 0.18872  0.84727  0.30062  Biso   1.000  C
  C67      1.0000 0.27292  0.70155  0.65967  Biso   1.000  C
  C68      1.0000 0.21431  0.75857  0.72009  Biso   1.000  C
  C69      1.0000 0.18784  0.84795  0.68328  Biso   1.000  C
  C70      1.0000 0.19070  0.72085  0.80933  Biso   1.000  C
  C71      1.0000 0.55041  0.70037  0.38295  Biso   1.000  C
  C72      1.0000 0.60753  0.75609  0.32603  Biso   1.000  C
  C73      1.0000 0.56986  0.84677  0.30082  Biso   1.000  C
  C74      1.0000 0.70096  0.71948  0.29742  Biso   1.000  C
  C75      1.0000 0.18873  0.72018  0.30062  Biso   1.000  C
  C76      1.0000 0.05081  0.19896  0.88696  Biso   1.000  C
  C77      1.0000 0.10942  0.25779  0.82654  Biso   1.000  C
  C78      1.0000 0.13588  0.28389  0.86335  Biso   1.000  C
  C79      1.0000 0.13303  0.28570  0.73730  Biso   1.000  C
  C80      1.0000 0.77332  0.19855  0.16368  Biso   1.000  C
  C81      1.0000 0.71620  0.25446  0.22060  Biso   1.000  C
  C82      1.0000 0.75387  0.28227  0.24581  Biso   1.000  C
  C83      1.0000 0.62277  0.28267  0.24921  Biso   1.000  C
  C84      1.0000 0.13500  0.77435  0.24601  Biso   1.000  C
  C85      1.0000 0.77511  0.20066  0.88036  Biso   1.000  C
  C86      1.0000 0.71589  0.25679  0.82734  Biso   1.000  C
  C87      1.0000 0.62566  0.28339  0.86435  Biso   1.000  C
  C88      1.0000 0.74989  0.28580  0.73530  Biso   1.000  C
  C89      1.0000 0.05002  0.92415  0.15847  Biso   1.000  C
  C90      1.0000 0.10844  0.86392  0.22050  Biso   1.000  C
  C91      1.0000 0.54862  0.42095  0.66627  Biso   1.000  C
  C92      1.0000 0.60784  0.36483  0.71929  Biso   1.000  C
  C93      1.0000 0.69807  0.33822  0.68228  Biso   1.000  C
  C94      1.0000 0.57384  0.33581  0.81133  Biso   1.000  C
  C95      1.0000 0.27371  0.69746  0.38816  Biso   1.000  C
  C96      1.0000 0.21529  0.75769  0.32613  Biso   1.000  C
  O27      1.0000 0.02869  0.00580  0.84344  Biso   1.000  O
  O28      1.0000 0.03110  0.87954  0.96970  Biso   1.000  O
  O29      1.0000 0.73241  0.00688  0.13837  Biso   1.000  O
  O30      1.0000 0.85765  0.88104  0.14117  Biso   1.000  O
  O31      1.0000 0.02901  0.00718  0.13887  Biso   1.000  O
  O32      1.0000 0.29503  0.44276  0.70319  Biso   1.000  O
  O33      1.0000 0.29263  0.44517  0.57693  Biso   1.000  O
  O34      1.0000 0.59132  0.44247  0.40827  Biso   1.000  O
  O35      1.0000 0.46608  0.44467  0.40546  Biso   1.000  O
  O36      1.0000 0.29472  0.73988  0.40776  Biso   1.000  O
  O37      1.0000 0.29503  0.61582  0.70319  Biso   1.000  O
  O38      1.0000 0.29263  0.74207  0.57693  Biso   1.000  O
  O39      1.0000 0.59132  0.61473  0.40827  Biso   1.000  O
  O40      1.0000 0.46608  0.74058  0.40546  Biso   1.000  O
  O41      1.0000 0.29472  0.61443  0.40776  Biso   1.000  O
  O42      1.0000 0.02870  0.17886  0.84344  Biso   1.000  O
  O43      1.0000 0.03110  0.17645  0.96970  Biso   1.000  O
  O44      1.0000 0.73241  0.17914  0.13837  Biso   1.000  O
  O45      1.0000 0.85765  0.17694  0.14117  Biso   1.000  O
  O46      1.0000 0.02901  0.88174  0.13887  Biso   1.000  O
  O47      1.0000 0.91196  0.06081  0.02322  Biso   1.000  O
  O48      1.0000 0.85744  0.17746  0.84444  Biso   1.000  O
  O49      1.0000 0.73370  0.17905  0.96499  Biso   1.000  O
  O50      1.0000 0.41177  0.56081  0.52341  Biso   1.000  O
  O51      1.0000 0.46629  0.44416  0.70219  Biso   1.000  O
