data_image0
_cell_length_a       18.2422
_cell_length_b       18.2422
_cell_length_c       18.2422
_cell_angle_alpha    60
_cell_angle_beta     60
_cell_angle_gamma    60

_symmetry_space_group_name_H-M    "P 1"
_symmetry_int_tables_number       1

loop_
  _symmetry_equiv_pos_as_xyz
  'x, y, z'

loop_
  _atom_site_label
  _atom_site_occupancy
  _atom_site_fract_x
  _atom_site_fract_y
  _atom_site_fract_z
  _atom_site_thermal_displace_type
  _atom_site_B_iso_or_equiv
  _atom_site_type_symbol
  C1       1.0000 0.29356  0.29355  0.11934  Biso   1.000  C
  C2       1.0000 0.29356  0.29355  0.29355  Biso   1.000  C
  C3       1.0000 0.11935  0.29355  0.29355  Biso   1.000  C
  C4       1.0000 0.29356  0.11934  0.29355  Biso   1.000  C
  C5       1.0000 0.70644  0.70645  0.88066  Biso   1.000  C
  C6       1.0000 0.70644  0.70645  0.70645  Biso   1.000  C
  C7       1.0000 0.70644  0.88066  0.70645  Biso   1.000  C
  C8       1.0000 0.88065  0.70645  0.70645  Biso   1.000  C
  C9       1.0000 0.45610  0.45610  0.93590  Biso   1.000  C
  C10      1.0000 0.45610  0.45610  0.15190  Biso   1.000  C
  C11      1.0000 0.93590  0.15190  0.45610  Biso   1.000  C
  C12      1.0000 0.15190  0.93590  0.45610  Biso   1.000  C
  C13      1.0000 0.45610  0.93590  0.15190  Biso   1.000  C
  C14      1.0000 0.45610  0.15190  0.93590  Biso   1.000  C
  C15      1.0000 0.93590  0.45610  0.45610  Biso   1.000  C
  C16      1.0000 0.15190  0.45610  0.45610  Biso   1.000  C
  C17      1.0000 0.45610  0.15190  0.45610  Biso   1.000  C
  C18      1.0000 0.45610  0.93590  0.45610  Biso   1.000  C
  C19      1.0000 0.93590  0.45610  0.15190  Biso   1.000  C
  C20      1.0000 0.15190  0.45610  0.93590  Biso   1.000  C
  C21      1.0000 0.54390  0.54390  0.06410  Biso   1.000  C
  C22      1.0000 0.54390  0.54390  0.84810  Biso   1.000  C
  C23      1.0000 0.84810  0.06410  0.54390  Biso   1.000  C
  C24      1.0000 0.06410  0.84810  0.54390  Biso   1.000  C
  C25      1.0000 0.06410  0.54390  0.84810  Biso   1.000  C
  C26      1.0000 0.84810  0.54390  0.06410  Biso   1.000  C
  C27      1.0000 0.54390  0.06410  0.54390  Biso   1.000  C
  C28      1.0000 0.54390  0.84810  0.54390  Biso   1.000  C
  C29      1.0000 0.84810  0.54390  0.54390  Biso   1.000  C
  C30      1.0000 0.06410  0.54390  0.54390  Biso   1.000  C
  C31      1.0000 0.54390  0.06410  0.84810  Biso   1.000  C
  C32      1.0000 0.54390  0.84810  0.06410  Biso   1.000  C
  C33      1.0000 0.47369  0.47369  0.96285  Biso   1.000  C
  C34      1.0000 0.47369  0.47369  0.08977  Biso   1.000  C
  C35      1.0000 0.96285  0.08977  0.47369  Biso   1.000  C
  C36      1.0000 0.08977  0.96285  0.47369  Biso   1.000  C
  C37      1.0000 0.47369  0.96285  0.08977  Biso   1.000  C
  C38      1.0000 0.47369  0.08977  0.96285  Biso   1.000  C
  C39      1.0000 0.96285  0.47369  0.47369  Biso   1.000  C
  C40      1.0000 0.08977  0.47369  0.47369  Biso   1.000  C
  C41      1.0000 0.47369  0.08977  0.47369  Biso   1.000  C
  C42      1.0000 0.47369  0.96285  0.47369  Biso   1.000  C
  C43      1.0000 0.96285  0.47369  0.08977  Biso   1.000  C
  C44      1.0000 0.08977  0.47369  0.96285  Biso   1.000  C
  C45      1.0000 0.52631  0.52631  0.03715  Biso   1.000  C
  C46      1.0000 0.52631  0.52631  0.91023  Biso   1.000  C
  C47      1.0000 0.91023  0.03715  0.52631  Biso   1.000  C
  C48      1.0000 0.03715  0.91023  0.52631  Biso   1.000  C
  C49      1.0000 0.03715  0.52631  0.91023  Biso   1.000  C
  C50      1.0000 0.91023  0.52631  0.03715  Biso   1.000  C
  C51      1.0000 0.52631  0.03715  0.52631  Biso   1.000  C
  C52      1.0000 0.52631  0.91023  0.52631  Biso   1.000  C
  C53      1.0000 0.91023  0.52631  0.52631  Biso   1.000  C
  C54      1.0000 0.03715  0.52631  0.52631  Biso   1.000  C
  C55      1.0000 0.52631  0.03715  0.91023  Biso   1.000  C
  C56      1.0000 0.52631  0.91023  0.03715  Biso   1.000  C
  C57      1.0000 0.38870  0.38870  0.11130  Biso   1.000  C
  C58      1.0000 0.44610  0.44610  0.05390  Biso   1.000  C
  C59      1.0000 0.11130  0.11130  0.38870  Biso   1.000  C
  C60      1.0000 0.05390  0.05390  0.44610  Biso   1.000  C
  C61      1.0000 0.38870  0.11130  0.11130  Biso   1.000  C
  C62      1.0000 0.44610  0.05390  0.05390  Biso   1.000  C
  C63      1.0000 0.11130  0.38870  0.38870  Biso   1.000  C
  C64      1.0000 0.05390  0.44610  0.44610  Biso   1.000  C
  C65      1.0000 0.38870  0.11130  0.38870  Biso   1.000  C
  C66      1.0000 0.44610  0.05390  0.44610  Biso   1.000  C
  C67      1.0000 0.11130  0.38870  0.11130  Biso   1.000  C
  C68      1.0000 0.05390  0.44610  0.05390  Biso   1.000  C
  C69      1.0000 0.61130  0.61130  0.88870  Biso   1.000  C
  C70      1.0000 0.55390  0.55390  0.94610  Biso   1.000  C
  C71      1.0000 0.88870  0.88870  0.61130  Biso   1.000  C
  C72      1.0000 0.94610  0.94610  0.55390  Biso   1.000  C
  C73      1.0000 0.88870  0.61130  0.88870  Biso   1.000  C
  C74      1.0000 0.94610  0.55390  0.94610  Biso   1.000  C
  C75      1.0000 0.61130  0.88870  0.61130  Biso   1.000  C
  C76      1.0000 0.55390  0.94610  0.55390  Biso   1.000  C
  C77      1.0000 0.88870  0.61130  0.61130  Biso   1.000  C
  C78      1.0000 0.94610  0.55390  0.55390  Biso   1.000  C
  C79      1.0000 0.61130  0.88870  0.88870  Biso   1.000  C
  C80      1.0000 0.55390  0.94610  0.94610  Biso   1.000  C
  C81      1.0000 0.25000  0.25000  0.25000  Biso   1.000  C
  C82      1.0000 0.75000  0.75000  0.75000  Biso   1.000  C
  C83      1.0000 0.36609  0.36609  0.07323  Biso   1.000  C
  C84      1.0000 0.36609  0.36609  0.19459  Biso   1.000  C
  C85      1.0000 0.07323  0.19459  0.36609  Biso   1.000  C
  C86      1.0000 0.19459  0.07323  0.36609  Biso   1.000  C
  C87      1.0000 0.36609  0.07323  0.19459  Biso   1.000  C
  C88      1.0000 0.36609  0.19459  0.07323  Biso   1.000  C
  C89      1.0000 0.07323  0.36609  0.36609  Biso   1.000  C
  C90      1.0000 0.19459  0.36609  0.36609  Biso   1.000  C
  C91      1.0000 0.36609  0.19459  0.36609  Biso   1.000  C
  C92      1.0000 0.36609  0.07323  0.36609  Biso   1.000  C
  C93      1.0000 0.07323  0.36609  0.19459  Biso   1.000  C
  C94      1.0000 0.19459  0.36609  0.07323  Biso   1.000  C
  C95      1.0000 0.63391  0.63391  0.92677  Biso   1.000  C
  C96      1.0000 0.63391  0.63391  0.80541  Biso   1.000  C
  C97      1.0000 0.80541  0.92677  0.63391  Biso   1.000  C
  C98      1.0000 0.92677  0.80541  0.63391  Biso   1.000  C
  C99      1.0000 0.92677  0.63391  0.80541  Biso   1.000  C
  C100     1.0000 0.80541  0.63391  0.92677  Biso   1.000  C
  C101     1.0000 0.63391  0.92677  0.63391  Biso   1.000  C
  C102     1.0000 0.63391  0.80541  0.63391  Biso   1.000  C
  C103     1.0000 0.80541  0.63391  0.63391  Biso   1.000  C
  C104     1.0000 0.92677  0.63391  0.63391  Biso   1.000  C
  C105     1.0000 0.63391  0.92677  0.80541  Biso   1.000  C
  C106     1.0000 0.63391  0.80541  0.92677  Biso   1.000  C
  O1       1.0000 0.47809  0.34589  0.67138  Biso   1.000  O
  O2       1.0000 0.65228  0.34589  0.49719  Biso   1.000  O
  O3       1.0000 0.47809  0.34589  0.49719  Biso   1.000  O
  O4       1.0000 0.47809  0.52008  0.49719  Biso   1.000  O
  O5       1.0000 0.06545  0.93290  0.91000  Biso   1.000  O
  O6       1.0000 0.89126  0.93290  0.08419  Biso   1.000  O
  O7       1.0000 0.06545  0.75871  0.08419  Biso   1.000  O
  O8       1.0000 0.06545  0.93290  0.08419  Biso   1.000  O
  O9       1.0000 0.61963  0.18360  0.85441  Biso   1.000  O
  O10      1.0000 0.83549  0.18360  0.63855  Biso   1.000  O
  O11      1.0000 0.31598  0.48726  0.33490  Biso   1.000  O
  O12      1.0000 0.31598  0.70312  0.33490  Biso   1.000  O
  O13      1.0000 0.31598  0.70312  0.63855  Biso   1.000  O
  O14      1.0000 0.31598  0.48726  0.85441  Biso   1.000  O
  O15      1.0000 0.61963  0.18360  0.33490  Biso   1.000  O
  O16      1.0000 0.83549  0.18360  0.33490  Biso   1.000  O
  O17      1.0000 0.83549  0.48726  0.33490  Biso   1.000  O
  O18      1.0000 0.61963  0.70312  0.33490  Biso   1.000  O
  O19      1.0000 0.31598  0.18360  0.63855  Biso   1.000  O
  O20      1.0000 0.31598  0.18360  0.85441  Biso   1.000  O
  O21      1.0000 0.92391  0.09519  0.72697  Biso   1.000  O
  O22      1.0000 0.70805  0.09519  0.94283  Biso   1.000  O
  O23      1.0000 0.22756  0.57567  0.24648  Biso   1.000  O
  O24      1.0000 0.22756  0.79153  0.24648  Biso   1.000  O
  O25      1.0000 0.22756  0.09519  0.94283  Biso   1.000  O
  O26      1.0000 0.22756  0.09519  0.72697  Biso   1.000  O
  O27      1.0000 0.92391  0.57567  0.24648  Biso   1.000  O
  O28      1.0000 0.70805  0.79153  0.24648  Biso   1.000  O
  O29      1.0000 0.70805  0.09519  0.24648  Biso   1.000  O
  O30      1.0000 0.92391  0.09519  0.24648  Biso   1.000  O
  O31      1.0000 0.22756  0.57567  0.94283  Biso   1.000  O
  O32      1.0000 0.22756  0.79153  0.72697  Biso   1.000  O
  O33      1.0000 0.68178  0.16595  0.82758  Biso   1.000  O
  O34      1.0000 0.80866  0.16595  0.70070  Biso   1.000  O
  O35      1.0000 0.29833  0.54940  0.31725  Biso   1.000  O
  O36      1.0000 0.29833  0.67628  0.31725  Biso   1.000  O
  O37      1.0000 0.29833  0.67628  0.70070  Biso   1.000  O
  O38      1.0000 0.29833  0.54940  0.82758  Biso   1.000  O
  O39      1.0000 0.68178  0.16595  0.31725  Biso   1.000  O
  O40      1.0000 0.80866  0.16595  0.31725  Biso   1.000  O
  O41      1.0000 0.80866  0.54940  0.31725  Biso   1.000  O
  O42      1.0000 0.68177  0.67628  0.31725  Biso   1.000  O
  O43      1.0000 0.29833  0.16595  0.70070  Biso   1.000  O
  O44      1.0000 0.29833  0.16595  0.82758  Biso   1.000  O
  O45      1.0000 0.86177  0.11284  0.75380  Biso   1.000  O
  O46      1.0000 0.73488  0.11284  0.88069  Biso   1.000  O
  O47      1.0000 0.24522  0.60251  0.26414  Biso   1.000  O
  O48      1.0000 0.24522  0.72939  0.26414  Biso   1.000  O
  O49      1.0000 0.24522  0.11284  0.88069  Biso   1.000  O
  O50      1.0000 0.24522  0.11284  0.75380  Biso   1.000  O
  O51      1.0000 0.86177  0.60251  0.26414  Biso   1.000  O
  O52      1.0000 0.73488  0.72939  0.26414  Biso   1.000  O
  O53      1.0000 0.73488  0.11284  0.26414  Biso   1.000  O
  O54      1.0000 0.86177  0.11284  0.26414  Biso   1.000  O
  O55      1.0000 0.24522  0.60251  0.88069  Biso   1.000  O
  O56      1.0000 0.24522  0.72939  0.75380  Biso   1.000  O
  O57      1.0000 0.66023  0.25084  0.67933  Biso   1.000  O
  O58      1.0000 0.71787  0.19320  0.73697  Biso   1.000  O
  O59      1.0000 0.38304  0.52803  0.40214  Biso   1.000  O
  O60      1.0000 0.32540  0.58567  0.34450  Biso   1.000  O
  O61      1.0000 0.38304  0.52803  0.67933  Biso   1.000  O
  O62      1.0000 0.32540  0.58567  0.73697  Biso   1.000  O
  O63      1.0000 0.66023  0.25084  0.40214  Biso   1.000  O
  O64      1.0000 0.71787  0.19320  0.34450  Biso   1.000  O
  O65      1.0000 0.66023  0.52803  0.40214  Biso   1.000  O
  O66      1.0000 0.71787  0.58567  0.34450  Biso   1.000  O
  O67      1.0000 0.38304  0.25084  0.67933  Biso   1.000  O
  O68      1.0000 0.32540  0.19320  0.73697  Biso   1.000  O
  O69      1.0000 0.88331  0.02794  0.90205  Biso   1.000  O
  O70      1.0000 0.82567  0.08558  0.84441  Biso   1.000  O
  O71      1.0000 0.16050  0.75075  0.17924  Biso   1.000  O
  O72      1.0000 0.21814  0.69311  0.23688  Biso   1.000  O
  O73      1.0000 0.16050  0.02794  0.90205  Biso   1.000  O
  O74      1.0000 0.21814  0.08558  0.84441  Biso   1.000  O
  O75      1.0000 0.88331  0.75075  0.17924  Biso   1.000  O
  O76      1.0000 0.82567  0.69311  0.23688  Biso   1.000  O
  O77      1.0000 0.88331  0.02794  0.17924  Biso   1.000  O
  O78      1.0000 0.82567  0.08558  0.23688  Biso   1.000  O
  O79      1.0000 0.16050  0.75075  0.90205  Biso   1.000  O
  O80      1.0000 0.21814  0.69311  0.84441  Biso   1.000  O
  O81      1.0000 0.52164  0.38944  0.54074  Biso   1.000  O
  O82      1.0000 0.02191  0.88935  0.04065  Biso   1.000  O
  O83      1.0000 0.57682  0.27339  0.71766  Biso   1.000  O
  O84      1.0000 0.69856  0.27339  0.59592  Biso   1.000  O
  O85      1.0000 0.40558  0.44462  0.42469  Biso   1.000  O
  O86      1.0000 0.40558  0.56636  0.42469  Biso   1.000  O
  O87      1.0000 0.40558  0.56636  0.59592  Biso   1.000  O
  O88      1.0000 0.40558  0.44462  0.71766  Biso   1.000  O
  O89      1.0000 0.57682  0.27339  0.42469  Biso   1.000  O
  O90      1.0000 0.69856  0.27339  0.42469  Biso   1.000  O
  O91      1.0000 0.69856  0.44462  0.42469  Biso   1.000  O
  O92      1.0000 0.57682  0.56636  0.42469  Biso   1.000  O
  O93      1.0000 0.40558  0.27339  0.59592  Biso   1.000  O
  O94      1.0000 0.40558  0.27339  0.71766  Biso   1.000  O
  O95      1.0000 0.96673  0.00540  0.86372  Biso   1.000  O
  O96      1.0000 0.84498  0.00540  0.98547  Biso   1.000  O
  O97      1.0000 0.13796  0.71243  0.15670  Biso   1.000  O
  O98      1.0000 0.13796  0.83417  0.15670  Biso   1.000  O
  O99      1.0000 0.13796  0.00540  0.98547  Biso   1.000  O
  O100     1.0000 0.13796  0.00540  0.86372  Biso   1.000  O
  O101     1.0000 0.96673  0.71243  0.15670  Biso   1.000  O
  O102     1.0000 0.84498  0.83417  0.15670  Biso   1.000  O
  O103     1.0000 0.84498  0.00540  0.15670  Biso   1.000  O
  O104     1.0000 0.96673  0.00540  0.15670  Biso   1.000  O
  O105     1.0000 0.13796  0.71243  0.98547  Biso   1.000  O
