data_image0
_cell_length_a       18.2344
_cell_length_b       18.2344
_cell_length_c       18.2344
_cell_angle_alpha    60
_cell_angle_beta     60
_cell_angle_gamma    60

_symmetry_space_group_name_H-M    "P 1"
_symmetry_int_tables_number       1

loop_
  _symmetry_equiv_pos_as_xyz
  'x, y, z'

loop_
  _atom_site_label
  _atom_site_occupancy
  _atom_site_fract_x
  _atom_site_fract_y
  _atom_site_fract_z
  _atom_site_thermal_displace_type
  _atom_site_B_iso_or_equiv
  _atom_site_type_symbol
  C1       1.0000 0.29357  0.29359  0.11925  Biso   1.000  C
  C2       1.0000 0.29358  0.29358  0.29359  Biso   1.000  C
  C3       1.0000 0.11924  0.29359  0.29358  Biso   1.000  C
  C4       1.0000 0.29358  0.11925  0.29359  Biso   1.000  C
  C5       1.0000 0.70642  0.70642  0.88075  Biso   1.000  C
  C6       1.0000 0.70641  0.70642  0.70642  Biso   1.000  C
  C7       1.0000 0.70642  0.88075  0.70642  Biso   1.000  C
  C8       1.0000 0.88075  0.70642  0.70641  Biso   1.000  C
  C9       1.0000 0.45590  0.45590  0.93650  Biso   1.000  C
  C10      1.0000 0.45590  0.45590  0.15170  Biso   1.000  C
  C11      1.0000 0.93650  0.15170  0.45590  Biso   1.000  C
  C12      1.0000 0.15170  0.93650  0.45590  Biso   1.000  C
  C13      1.0000 0.45590  0.93650  0.15170  Biso   1.000  C
  C14      1.0000 0.45590  0.15170  0.93650  Biso   1.000  C
  C15      1.0000 0.93650  0.45590  0.45590  Biso   1.000  C
  C16      1.0000 0.15170  0.45590  0.45590  Biso   1.000  C
  C17      1.0000 0.45590  0.15170  0.45590  Biso   1.000  C
  C18      1.0000 0.45590  0.93650  0.45590  Biso   1.000  C
  C19      1.0000 0.93650  0.45590  0.15170  Biso   1.000  C
  C20      1.0000 0.15170  0.45590  0.93650  Biso   1.000  C
  C21      1.0000 0.54410  0.54410  0.06350  Biso   1.000  C
  C22      1.0000 0.54410  0.54410  0.84830  Biso   1.000  C
  C23      1.0000 0.84830  0.06350  0.54410  Biso   1.000  C
  C24      1.0000 0.06350  0.84830  0.54410  Biso   1.000  C
  C25      1.0000 0.06350  0.54410  0.84830  Biso   1.000  C
  C26      1.0000 0.84830  0.54410  0.06350  Biso   1.000  C
  C27      1.0000 0.54410  0.06350  0.54410  Biso   1.000  C
  C28      1.0000 0.54410  0.84830  0.54410  Biso   1.000  C
  C29      1.0000 0.84830  0.54410  0.54410  Biso   1.000  C
  C30      1.0000 0.06350  0.54410  0.54410  Biso   1.000  C
  C31      1.0000 0.54410  0.06350  0.84830  Biso   1.000  C
  C32      1.0000 0.54410  0.84830  0.06350  Biso   1.000  C
  C33      1.0000 0.47360  0.47360  0.96326  Biso   1.000  C
  C34      1.0000 0.47360  0.47360  0.08954  Biso   1.000  C
  C35      1.0000 0.96326  0.08954  0.47360  Biso   1.000  C
  C36      1.0000 0.08954  0.96326  0.47360  Biso   1.000  C
  C37      1.0000 0.47360  0.96326  0.08954  Biso   1.000  C
  C38      1.0000 0.47360  0.08954  0.96326  Biso   1.000  C
  C39      1.0000 0.96326  0.47360  0.47360  Biso   1.000  C
  C40      1.0000 0.08954  0.47360  0.47360  Biso   1.000  C
  C41      1.0000 0.47360  0.08954  0.47360  Biso   1.000  C
  C42      1.0000 0.47360  0.96326  0.47360  Biso   1.000  C
  C43      1.0000 0.96326  0.47360  0.08954  Biso   1.000  C
  C44      1.0000 0.08954  0.47360  0.96326  Biso   1.000  C
  C45      1.0000 0.52640  0.52640  0.03674  Biso   1.000  C
  C46      1.0000 0.52640  0.52640  0.91046  Biso   1.000  C
  C47      1.0000 0.91046  0.03674  0.52640  Biso   1.000  C
  C48      1.0000 0.03674  0.91046  0.52640  Biso   1.000  C
  C49      1.0000 0.03674  0.52640  0.91046  Biso   1.000  C
  C50      1.0000 0.91046  0.52640  0.03674  Biso   1.000  C
  C51      1.0000 0.52640  0.03674  0.52640  Biso   1.000  C
  C52      1.0000 0.52640  0.91046  0.52640  Biso   1.000  C
  C53      1.0000 0.91046  0.52640  0.52640  Biso   1.000  C
  C54      1.0000 0.03674  0.52640  0.52640  Biso   1.000  C
  C55      1.0000 0.52640  0.03674  0.91046  Biso   1.000  C
  C56      1.0000 0.52640  0.91046  0.03674  Biso   1.000  C
  C57      1.0000 0.38860  0.38860  0.11140  Biso   1.000  C
  C58      1.0000 0.44640  0.44640  0.05360  Biso   1.000  C
  C59      1.0000 0.11140  0.11140  0.38860  Biso   1.000  C
  C60      1.0000 0.05360  0.05360  0.44640  Biso   1.000  C
  C61      1.0000 0.38860  0.11140  0.11140  Biso   1.000  C
  C62      1.0000 0.44640  0.05360  0.05360  Biso   1.000  C
  C63      1.0000 0.11140  0.38860  0.38860  Biso   1.000  C
  C64      1.0000 0.05360  0.44640  0.44640  Biso   1.000  C
  C65      1.0000 0.38860  0.11140  0.38860  Biso   1.000  C
  C66      1.0000 0.44640  0.05360  0.44640  Biso   1.000  C
  C67      1.0000 0.11140  0.38860  0.11140  Biso   1.000  C
  C68      1.0000 0.05360  0.44640  0.05360  Biso   1.000  C
  C69      1.0000 0.61140  0.61140  0.88860  Biso   1.000  C
  C70      1.0000 0.55360  0.55360  0.94640  Biso   1.000  C
  C71      1.0000 0.88860  0.88860  0.61140  Biso   1.000  C
  C72      1.0000 0.94640  0.94640  0.55360  Biso   1.000  C
  C73      1.0000 0.88860  0.61140  0.88860  Biso   1.000  C
  C74      1.0000 0.94640  0.55360  0.94640  Biso   1.000  C
  C75      1.0000 0.61140  0.88860  0.61140  Biso   1.000  C
  C76      1.0000 0.55360  0.94640  0.55360  Biso   1.000  C
  C77      1.0000 0.88860  0.61140  0.61140  Biso   1.000  C
  C78      1.0000 0.94640  0.55360  0.55360  Biso   1.000  C
  C79      1.0000 0.61140  0.88860  0.88860  Biso   1.000  C
  C80      1.0000 0.55360  0.94640  0.94640  Biso   1.000  C
  C81      1.0000 0.25000  0.25000  0.25000  Biso   1.000  C
  C82      1.0000 0.75000  0.75000  0.75000  Biso   1.000  C
  C83      1.0000 0.36604  0.36604  0.07340  Biso   1.000  C
  C84      1.0000 0.36604  0.36604  0.19452  Biso   1.000  C
  C85      1.0000 0.07340  0.19452  0.36604  Biso   1.000  C
  C86      1.0000 0.19452  0.07340  0.36604  Biso   1.000  C
  C87      1.0000 0.36604  0.07340  0.19452  Biso   1.000  C
  C88      1.0000 0.36604  0.19452  0.07340  Biso   1.000  C
  C89      1.0000 0.07340  0.36604  0.36604  Biso   1.000  C
  C90      1.0000 0.19452  0.36604  0.36604  Biso   1.000  C
  C91      1.0000 0.36604  0.19452  0.36604  Biso   1.000  C
  C92      1.0000 0.36604  0.07340  0.36604  Biso   1.000  C
  C93      1.0000 0.07340  0.36604  0.19452  Biso   1.000  C
  C94      1.0000 0.19452  0.36604  0.07340  Biso   1.000  C
  C95      1.0000 0.63396  0.63396  0.92660  Biso   1.000  C
  C96      1.0000 0.63396  0.63396  0.80548  Biso   1.000  C
  C97      1.0000 0.80548  0.92660  0.63396  Biso   1.000  C
  C98      1.0000 0.92660  0.80548  0.63396  Biso   1.000  C
  C99      1.0000 0.92660  0.63396  0.80548  Biso   1.000  C
  C100     1.0000 0.80548  0.63396  0.92660  Biso   1.000  C
  C101     1.0000 0.63396  0.92660  0.63396  Biso   1.000  C
  C102     1.0000 0.63396  0.80548  0.63396  Biso   1.000  C
  C103     1.0000 0.80548  0.63396  0.63396  Biso   1.000  C
  C104     1.0000 0.92660  0.63396  0.63396  Biso   1.000  C
  C105     1.0000 0.63396  0.92660  0.80548  Biso   1.000  C
  C106     1.0000 0.63396  0.80548  0.92660  Biso   1.000  C
  O1       1.0000 0.99514  0.97545  0.87317  Biso   1.000  O
  O2       1.0000 0.99519  0.14794  0.87312  Biso   1.000  O
  O3       1.0000 0.16768  0.97545  0.87317  Biso   1.000  O
  O4       1.0000 0.99519  0.97540  0.04565  Biso   1.000  O
  O5       1.0000 0.57915  0.56398  0.46170  Biso   1.000  O
  O6       1.0000 0.57910  0.39149  0.46175  Biso   1.000  O
  O7       1.0000 0.40661  0.56398  0.46170  Biso   1.000  O
  O8       1.0000 0.57910  0.56403  0.28922  Biso   1.000  O
  O9       1.0000 0.81554  0.17542  0.69452  Biso   1.000  O
  O10      1.0000 0.19537  0.79659  0.69252  Biso   1.000  O
  O11      1.0000 0.81494  0.79759  0.07315  Biso   1.000  O
  O12      1.0000 0.81655  0.31084  0.69352  Biso   1.000  O
  O13      1.0000 0.81455  0.31185  0.07334  Biso   1.000  O
  O14      1.0000 0.19518  0.31065  0.69292  Biso   1.000  O
  O15      1.0000 0.32595  0.79680  0.07314  Biso   1.000  O
  O16      1.0000 0.32696  0.79480  0.69431  Biso   1.000  O
  O17      1.0000 0.32576  0.17543  0.69531  Biso   1.000  O
  O18      1.0000 0.19053  0.79580  0.20856  Biso   1.000  O
  O19      1.0000 0.81170  0.17563  0.20957  Biso   1.000  O
  O20      1.0000 0.81270  0.79519  0.20837  Biso   1.000  O
  O21      1.0000 0.75875  0.36401  0.64035  Biso   1.000  O
  O22      1.0000 0.37892  0.74284  0.64235  Biso   1.000  O
  O23      1.0000 0.75935  0.74184  0.26173  Biso   1.000  O
  O24      1.0000 0.75773  0.22859  0.64135  Biso   1.000  O
  O25      1.0000 0.75974  0.22759  0.26153  Biso   1.000  O
  O26      1.0000 0.37911  0.22878  0.64195  Biso   1.000  O
  O27      1.0000 0.24834  0.74263  0.26174  Biso   1.000  O
  O28      1.0000 0.24733  0.74463  0.64056  Biso   1.000  O
  O29      1.0000 0.24853  0.36400  0.63957  Biso   1.000  O
  O30      1.0000 0.38376  0.74363  0.12631  Biso   1.000  O
  O31      1.0000 0.76259  0.36381  0.12530  Biso   1.000  O
  O32      1.0000 0.76159  0.74424  0.12650  Biso   1.000  O
  O33      1.0000 0.84300  0.21385  0.72099  Biso   1.000  O
  O34      1.0000 0.90141  0.15545  0.77939  Biso   1.000  O
  O35      1.0000 0.23359  0.82327  0.11157  Biso   1.000  O
  O36      1.0000 0.17518  0.88168  0.05316  Biso   1.000  O
  O37      1.0000 0.73129  0.32558  0.61389  Biso   1.000  O
  O38      1.0000 0.67288  0.38399  0.55548  Biso   1.000  O
  O39      1.0000 0.34070  0.71616  0.22330  Biso   1.000  O
  O40      1.0000 0.39911  0.65775  0.28171  Biso   1.000  O
  O41      1.0000 0.84281  0.82307  0.11177  Biso   1.000  O
  O42      1.0000 0.90094  0.88120  0.05364  Biso   1.000  O
  O43      1.0000 0.23378  0.21405  0.72079  Biso   1.000  O
  O44      1.0000 0.17566  0.15592  0.77892  Biso   1.000  O
  O45      1.0000 0.73148  0.71636  0.22311  Biso   1.000  O
  O46      1.0000 0.67335  0.65823  0.28123  Biso   1.000  O
  O47      1.0000 0.34051  0.32538  0.61408  Biso   1.000  O
  O48      1.0000 0.39863  0.38351  0.55596  Biso   1.000  O
  O49      1.0000 0.23399  0.82287  0.72059  Biso   1.000  O
  O50      1.0000 0.17586  0.88100  0.77872  Biso   1.000  O
  O51      1.0000 0.84260  0.21425  0.11196  Biso   1.000  O
  O52      1.0000 0.90073  0.15612  0.05384  Biso   1.000  O
  O53      1.0000 0.34030  0.71656  0.61428  Biso   1.000  O
  O54      1.0000 0.39843  0.65843  0.55615  Biso   1.000  O
  O55      1.0000 0.73169  0.32518  0.22291  Biso   1.000  O
  O56      1.0000 0.67355  0.38331  0.28104  Biso   1.000  O
  O57      1.0000 0.92391  0.07159  0.80030  Biso   1.000  O
  O58      1.0000 0.92198  0.90417  0.97015  Biso   1.000  O
  O59      1.0000 0.09091  0.90381  0.80071  Biso   1.000  O
  O60      1.0000 0.92231  0.19590  0.80189  Biso   1.000  O
  O61      1.0000 0.09216  0.19540  0.79996  Biso   1.000  O
  O62      1.0000 0.92273  0.19626  0.96889  Biso   1.000  O
  O63      1.0000 0.21563  0.90258  0.96931  Biso   1.000  O
  O64      1.0000 0.21513  0.07243  0.80189  Biso   1.000  O
  O65      1.0000 0.21599  0.90300  0.80153  Biso   1.000  O
  O66      1.0000 0.09133  0.90418  0.09361  Biso   1.000  O
  O67      1.0000 0.92391  0.90224  0.09311  Biso   1.000  O
  O68      1.0000 0.92355  0.07118  0.09397  Biso   1.000  O
  O69      1.0000 0.65038  0.46784  0.53457  Biso   1.000  O
  O70      1.0000 0.65231  0.63526  0.36473  Biso   1.000  O
  O71      1.0000 0.48337  0.63562  0.53416  Biso   1.000  O
  O72      1.0000 0.65197  0.34353  0.53298  Biso   1.000  O
  O73      1.0000 0.48213  0.34403  0.53491  Biso   1.000  O
  O74      1.0000 0.65156  0.34318  0.36598  Biso   1.000  O
  O75      1.0000 0.35866  0.63685  0.36556  Biso   1.000  O
  O76      1.0000 0.35916  0.46700  0.53298  Biso   1.000  O
  O77      1.0000 0.35830  0.63643  0.53334  Biso   1.000  O
  O78      1.0000 0.48296  0.63526  0.24126  Biso   1.000  O
  O79      1.0000 0.65038  0.63719  0.24176  Biso   1.000  O
  O80      1.0000 0.65074  0.46825  0.24090  Biso   1.000  O
  O81      1.0000 0.03830  0.01856  0.91628  Biso   1.000  O
  O82      1.0000 0.53599  0.52087  0.41859  Biso   1.000  O
  O83      1.0000 0.11913  0.81944  0.71389  Biso   1.000  O
  O84      1.0000 0.35899  0.81617  0.71715  Biso   1.000  O
  O85      1.0000 0.45516  0.72000  0.62098  Biso   1.000  O
  O86      1.0000 0.21530  0.72326  0.61772  Biso   1.000  O
  O87      1.0000 0.35779  0.09920  0.71840  Biso   1.000  O
  O88      1.0000 0.45534  0.19675  0.62084  Biso   1.000  O
  O89      1.0000 0.83605  0.82068  0.99691  Biso   1.000  O
  O90      1.0000 0.73850  0.72313  0.09447  Biso   1.000  O
  O91      1.0000 0.83907  0.34288  0.71521  Biso   1.000  O
  O92      1.0000 0.83592  0.34388  0.99710  Biso   1.000  O
  O93      1.0000 0.46001  0.72194  0.09427  Biso   1.000  O
  O94      1.0000 0.73975  0.44005  0.09327  Biso   1.000  O
  O95      1.0000 0.11895  0.34268  0.71403  Biso   1.000  O
  O96      1.0000 0.21650  0.44024  0.61647  Biso   1.000  O
  O97      1.0000 0.83579  0.81631  0.24041  Biso   1.000  O
  O98      1.0000 0.73824  0.71875  0.33796  Biso   1.000  O
  O99      1.0000 0.21630  0.72011  0.33798  Biso   1.000  O
  O100     1.0000 0.83454  0.09938  0.24160  Biso   1.000  O
  O101     1.0000 0.73837  0.19556  0.33777  Biso   1.000  O
  O102     1.0000 0.11428  0.81749  0.24060  Biso   1.000  O
  O103     1.0000 0.73522  0.19655  0.61966  Biso   1.000  O
  O104     1.0000 0.83723  0.09918  0.71703  Biso   1.000  O
  O105     1.0000 0.73706  0.44026  0.61784  Biso   1.000  O
