data_image0
_cell_length_a       18.2422
_cell_length_b       18.2422
_cell_length_c       18.2422
_cell_angle_alpha    60
_cell_angle_beta     60
_cell_angle_gamma    60

_symmetry_space_group_name_H-M    "P 1"
_symmetry_int_tables_number       1

loop_
  _symmetry_equiv_pos_as_xyz
  'x, y, z'

loop_
  _atom_site_label
  _atom_site_occupancy
  _atom_site_fract_x
  _atom_site_fract_y
  _atom_site_fract_z
  _atom_site_thermal_displace_type
  _atom_site_B_iso_or_equiv
  _atom_site_type_symbol
  C1       1.0000 0.29356  0.29355  0.11934  Biso   1.000  C
  C2       1.0000 0.29356  0.29355  0.29355  Biso   1.000  C
  C3       1.0000 0.11935  0.29355  0.29355  Biso   1.000  C
  C4       1.0000 0.29356  0.11934  0.29355  Biso   1.000  C
  C5       1.0000 0.70644  0.70645  0.88066  Biso   1.000  C
  C6       1.0000 0.70644  0.70645  0.70645  Biso   1.000  C
  C7       1.0000 0.70644  0.88066  0.70645  Biso   1.000  C
  C8       1.0000 0.88065  0.70645  0.70645  Biso   1.000  C
  C9       1.0000 0.45610  0.45610  0.93590  Biso   1.000  C
  C10      1.0000 0.45610  0.45610  0.15190  Biso   1.000  C
  C11      1.0000 0.93590  0.15190  0.45610  Biso   1.000  C
  C12      1.0000 0.15190  0.93590  0.45610  Biso   1.000  C
  C13      1.0000 0.45610  0.93590  0.15190  Biso   1.000  C
  C14      1.0000 0.45610  0.15190  0.93590  Biso   1.000  C
  C15      1.0000 0.93590  0.45610  0.45610  Biso   1.000  C
  C16      1.0000 0.15190  0.45610  0.45610  Biso   1.000  C
  C17      1.0000 0.45610  0.15190  0.45610  Biso   1.000  C
  C18      1.0000 0.45610  0.93590  0.45610  Biso   1.000  C
  C19      1.0000 0.93590  0.45610  0.15190  Biso   1.000  C
  C20      1.0000 0.15190  0.45610  0.93590  Biso   1.000  C
  C21      1.0000 0.54390  0.54390  0.06410  Biso   1.000  C
  C22      1.0000 0.54390  0.54390  0.84810  Biso   1.000  C
  C23      1.0000 0.84810  0.06410  0.54390  Biso   1.000  C
  C24      1.0000 0.06410  0.84810  0.54390  Biso   1.000  C
  C25      1.0000 0.06410  0.54390  0.84810  Biso   1.000  C
  C26      1.0000 0.84810  0.54390  0.06410  Biso   1.000  C
  C27      1.0000 0.54390  0.06410  0.54390  Biso   1.000  C
  C28      1.0000 0.54390  0.84810  0.54390  Biso   1.000  C
  C29      1.0000 0.84810  0.54390  0.54390  Biso   1.000  C
  C30      1.0000 0.06410  0.54390  0.54390  Biso   1.000  C
  C31      1.0000 0.54390  0.06410  0.84810  Biso   1.000  C
  C32      1.0000 0.54390  0.84810  0.06410  Biso   1.000  C
  C33      1.0000 0.47369  0.47369  0.96285  Biso   1.000  C
  C34      1.0000 0.47369  0.47369  0.08977  Biso   1.000  C
  C35      1.0000 0.96285  0.08977  0.47369  Biso   1.000  C
  C36      1.0000 0.08977  0.96285  0.47369  Biso   1.000  C
  C37      1.0000 0.47369  0.96285  0.08977  Biso   1.000  C
  C38      1.0000 0.47369  0.08977  0.96285  Biso   1.000  C
  C39      1.0000 0.96285  0.47369  0.47369  Biso   1.000  C
  C40      1.0000 0.08977  0.47369  0.47369  Biso   1.000  C
  C41      1.0000 0.47369  0.08977  0.47369  Biso   1.000  C
  C42      1.0000 0.47369  0.96285  0.47369  Biso   1.000  C
  C43      1.0000 0.96285  0.47369  0.08977  Biso   1.000  C
  C44      1.0000 0.08977  0.47369  0.96285  Biso   1.000  C
  C45      1.0000 0.52631  0.52631  0.03715  Biso   1.000  C
  C46      1.0000 0.52631  0.52631  0.91023  Biso   1.000  C
  C47      1.0000 0.91023  0.03715  0.52631  Biso   1.000  C
  C48      1.0000 0.03715  0.91023  0.52631  Biso   1.000  C
  C49      1.0000 0.03715  0.52631  0.91023  Biso   1.000  C
  C50      1.0000 0.91023  0.52631  0.03715  Biso   1.000  C
  C51      1.0000 0.52631  0.03715  0.52631  Biso   1.000  C
  C52      1.0000 0.52631  0.91023  0.52631  Biso   1.000  C
  C53      1.0000 0.91023  0.52631  0.52631  Biso   1.000  C
  C54      1.0000 0.03715  0.52631  0.52631  Biso   1.000  C
  C55      1.0000 0.52631  0.03715  0.91023  Biso   1.000  C
  C56      1.0000 0.52631  0.91023  0.03715  Biso   1.000  C
  C57      1.0000 0.38870  0.38870  0.11130  Biso   1.000  C
  C58      1.0000 0.44610  0.44610  0.05390  Biso   1.000  C
  C59      1.0000 0.11130  0.11130  0.38870  Biso   1.000  C
  C60      1.0000 0.05390  0.05390  0.44610  Biso   1.000  C
  C61      1.0000 0.38870  0.11130  0.11130  Biso   1.000  C
  C62      1.0000 0.44610  0.05390  0.05390  Biso   1.000  C
  C63      1.0000 0.11130  0.38870  0.38870  Biso   1.000  C
  C64      1.0000 0.05390  0.44610  0.44610  Biso   1.000  C
  C65      1.0000 0.38870  0.11130  0.38870  Biso   1.000  C
  C66      1.0000 0.44610  0.05390  0.44610  Biso   1.000  C
  C67      1.0000 0.11130  0.38870  0.11130  Biso   1.000  C
  C68      1.0000 0.05390  0.44610  0.05390  Biso   1.000  C
  C69      1.0000 0.61130  0.61130  0.88870  Biso   1.000  C
  C70      1.0000 0.55390  0.55390  0.94610  Biso   1.000  C
  C71      1.0000 0.88870  0.88870  0.61130  Biso   1.000  C
  C72      1.0000 0.94610  0.94610  0.55390  Biso   1.000  C
  C73      1.0000 0.88870  0.61130  0.88870  Biso   1.000  C
  C74      1.0000 0.94610  0.55390  0.94610  Biso   1.000  C
  C75      1.0000 0.61130  0.88870  0.61130  Biso   1.000  C
  C76      1.0000 0.55390  0.94610  0.55390  Biso   1.000  C
  C77      1.0000 0.88870  0.61130  0.61130  Biso   1.000  C
  C78      1.0000 0.94610  0.55390  0.55390  Biso   1.000  C
  C79      1.0000 0.61130  0.88870  0.88870  Biso   1.000  C
  C80      1.0000 0.55390  0.94610  0.94610  Biso   1.000  C
  C81      1.0000 0.25000  0.25000  0.25000  Biso   1.000  C
  C82      1.0000 0.75000  0.75000  0.75000  Biso   1.000  C
  C83      1.0000 0.36609  0.36609  0.07323  Biso   1.000  C
  C84      1.0000 0.36609  0.36609  0.19459  Biso   1.000  C
  C85      1.0000 0.07323  0.19459  0.36609  Biso   1.000  C
  C86      1.0000 0.19459  0.07323  0.36609  Biso   1.000  C
  C87      1.0000 0.36609  0.07323  0.19459  Biso   1.000  C
  C88      1.0000 0.36609  0.19459  0.07323  Biso   1.000  C
  C89      1.0000 0.07323  0.36609  0.36609  Biso   1.000  C
  C90      1.0000 0.19459  0.36609  0.36609  Biso   1.000  C
  C91      1.0000 0.36609  0.19459  0.36609  Biso   1.000  C
  C92      1.0000 0.36609  0.07323  0.36609  Biso   1.000  C
  C93      1.0000 0.07323  0.36609  0.19459  Biso   1.000  C
  C94      1.0000 0.19459  0.36609  0.07323  Biso   1.000  C
  C95      1.0000 0.63391  0.63391  0.92677  Biso   1.000  C
  C96      1.0000 0.63391  0.63391  0.80541  Biso   1.000  C
  C97      1.0000 0.80541  0.92677  0.63391  Biso   1.000  C
  C98      1.0000 0.92677  0.80541  0.63391  Biso   1.000  C
  C99      1.0000 0.92677  0.63391  0.80541  Biso   1.000  C
  C100     1.0000 0.80541  0.63391  0.92677  Biso   1.000  C
  C101     1.0000 0.63391  0.92677  0.63391  Biso   1.000  C
  C102     1.0000 0.63391  0.80541  0.63391  Biso   1.000  C
  C103     1.0000 0.80541  0.63391  0.63391  Biso   1.000  C
  C104     1.0000 0.92677  0.63391  0.63391  Biso   1.000  C
  C105     1.0000 0.63391  0.92677  0.80541  Biso   1.000  C
  C106     1.0000 0.63391  0.80541  0.92677  Biso   1.000  C
  O1       1.0000 0.16445  0.00000  0.00000  Biso   1.000  O
  O2       1.0000 0.57632  0.58801  0.41213  Biso   1.000  O
  O3       1.0000 0.57631  0.41303  0.41213  Biso   1.000  O
  O4       1.0000 0.16445  0.82503  0.00000  Biso   1.000  O
  O5       1.0000 0.16400  0.00034  0.82481  Biso   1.000  O
  O6       1.0000 0.98908  0.00015  0.00010  Biso   1.000  O
  O7       1.0000 0.57677  0.41269  0.58733  Biso   1.000  O
  O8       1.0000 0.75169  0.41288  0.41203  Biso   1.000  O
  O9       1.0000 0.32711  0.64584  0.85636  Biso   1.000  O
  O10      1.0000 0.32132  0.86023  0.64453  Biso   1.000  O
  O11      1.0000 0.02306  0.64693  0.16023  Biso   1.000  O
  O12      1.0000 0.80597  0.85771  0.16254  Biso   1.000  O
  O13      1.0000 0.32792  0.85971  0.15773  Biso   1.000  O
  O14      1.0000 0.41367  0.25285  0.55578  Biso   1.000  O
  O15      1.0000 0.41945  0.24964  0.76760  Biso   1.000  O
  O16      1.0000 0.71771  0.25377  0.25190  Biso   1.000  O
  O17      1.0000 0.93480  0.24976  0.24960  Biso   1.000  O
  O18      1.0000 0.41285  0.76890  0.25440  Biso   1.000  O
  O19      1.0000 0.41366  0.76719  0.55578  Biso   1.000  O
  O20      1.0000 0.41945  0.55280  0.76760  Biso   1.000  O
  O21      1.0000 0.71771  0.76610  0.25190  Biso   1.000  O
  O22      1.0000 0.93480  0.55533  0.24960  Biso   1.000  O
  O23      1.0000 0.41285  0.55333  0.25440  Biso   1.000  O
  O24      1.0000 0.32710  0.16018  0.85636  Biso   1.000  O
  O25      1.0000 0.32132  0.16340  0.64453  Biso   1.000  O
  O26      1.0000 0.02306  0.15927  0.16023  Biso   1.000  O
  O27      1.0000 0.80597  0.16327  0.16254  Biso   1.000  O
  O28      1.0000 0.32792  0.64413  0.15773  Biso   1.000  O
  O29      1.0000 0.80686  0.16208  0.85846  Biso   1.000  O
  O30      1.0000 0.02086  0.16320  0.64223  Biso   1.000  O
  O31      1.0000 0.93391  0.25095  0.55368  Biso   1.000  O
  O32      1.0000 0.71991  0.24984  0.76990  Biso   1.000  O
  O33      1.0000 0.25879  0.81650  0.81993  Biso   1.000  O
  O34      1.0000 0.31842  0.75837  0.75870  Biso   1.000  O
  O35      1.0000 0.34491  0.67156  0.79412  Biso   1.000  O
  O36      1.0000 0.34073  0.79810  0.67055  Biso   1.000  O
  O37      1.0000 0.97956  0.81969  0.09720  Biso   1.000  O
  O38      1.0000 0.92543  0.76115  0.15253  Biso   1.000  O
  O39      1.0000 0.96083  0.67314  0.17825  Biso   1.000  O
  O40      1.0000 0.83369  0.79567  0.18005  Biso   1.000  O
  O41      1.0000 0.34383  0.79757  0.17785  Biso   1.000  O
  O42      1.0000 0.48197  0.31878  0.59220  Biso   1.000  O
  O43      1.0000 0.42234  0.25905  0.65344  Biso   1.000  O
  O44      1.0000 0.39586  0.23414  0.61801  Biso   1.000  O
  O45      1.0000 0.40004  0.23293  0.74159  Biso   1.000  O
  O46      1.0000 0.76121  0.32000  0.31493  Biso   1.000  O
  O47      1.0000 0.81533  0.26267  0.25960  Biso   1.000  O
  O48      1.0000 0.77994  0.23576  0.23389  Biso   1.000  O
  O49      1.0000 0.90708  0.23295  0.23209  Biso   1.000  O
  O50      1.0000 0.39694  0.74279  0.23429  Biso   1.000  O
  O51      1.0000 0.48197  0.59653  0.59220  Biso   1.000  O
  O52      1.0000 0.42235  0.65466  0.65343  Biso   1.000  O
  O53      1.0000 0.39586  0.74147  0.61801  Biso   1.000  O
  O54      1.0000 0.40004  0.61493  0.74159  Biso   1.000  O
  O55      1.0000 0.76121  0.59334  0.31493  Biso   1.000  O
  O56      1.0000 0.81534  0.65188  0.25960  Biso   1.000  O
  O57      1.0000 0.77994  0.73989  0.23389  Biso   1.000  O
  O58      1.0000 0.90708  0.61736  0.23209  Biso   1.000  O
  O59      1.0000 0.39694  0.61546  0.23429  Biso   1.000  O
  O60      1.0000 0.25880  0.09425  0.81993  Biso   1.000  O
  O61      1.0000 0.31842  0.15399  0.75870  Biso   1.000  O
  O62      1.0000 0.34491  0.17890  0.79412  Biso   1.000  O
  O63      1.0000 0.34073  0.18010  0.67055  Biso   1.000  O
  O64      1.0000 0.97956  0.09303  0.09720  Biso   1.000  O
  O65      1.0000 0.92544  0.15036  0.15253  Biso   1.000  O
  O66      1.0000 0.96082  0.17728  0.17825  Biso   1.000  O
  O67      1.0000 0.83369  0.18008  0.18005  Biso   1.000  O
  O68      1.0000 0.34383  0.67024  0.17785  Biso   1.000  O
  O69      1.0000 0.98625  0.09505  0.81313  Biso   1.000  O
  O70      1.0000 0.92402  0.15228  0.76090  Biso   1.000  O
  O71      1.0000 0.83407  0.17950  0.79642  Biso   1.000  O
  O72      1.0000 0.95873  0.18070  0.66934  Biso   1.000  O
  O73      1.0000 0.25731  0.82149  0.08919  Biso   1.000  O
  O74      1.0000 0.31734  0.75975  0.15263  Biso   1.000  O
  O75      1.0000 0.75452  0.31798  0.59900  Biso   1.000  O
  O76      1.0000 0.81675  0.26075  0.65123  Biso   1.000  O
  O77      1.0000 0.90670  0.23354  0.61571  Biso   1.000  O
  O78      1.0000 0.78204  0.23233  0.74279  Biso   1.000  O
  O79      1.0000 0.48346  0.59154  0.32294  Biso   1.000  O
  O80      1.0000 0.42343  0.65328  0.25950  Biso   1.000  O
  O81      1.0000 0.23868  0.90195  0.77401  Biso   1.000  O
  O82      1.0000 0.23999  0.77257  0.90418  Biso   1.000  O
  O83      1.0000 0.93964  0.90293  0.07068  Biso   1.000  O
  O84      1.0000 0.06590  0.77557  0.07468  Biso   1.000  O
  O85      1.0000 0.23820  0.90393  0.07188  Biso   1.000  O
  O86      1.0000 0.50209  0.33819  0.63813  Biso   1.000  O
  O87      1.0000 0.50078  0.34030  0.50795  Biso   1.000  O
  O88      1.0000 0.80113  0.33680  0.34145  Biso   1.000  O
  O89      1.0000 0.67486  0.33971  0.33745  Biso   1.000  O
  O90      1.0000 0.50257  0.63757  0.34025  Biso   1.000  O
  O91      1.0000 0.50209  0.51108  0.63813  Biso   1.000  O
  O92      1.0000 0.50078  0.64046  0.50795  Biso   1.000  O
  O93      1.0000 0.80113  0.51010  0.34145  Biso   1.000  O
  O94      1.0000 0.67486  0.63747  0.33745  Biso   1.000  O
  O95      1.0000 0.50257  0.50910  0.34025  Biso   1.000  O
  O96      1.0000 0.23868  0.07484  0.77401  Biso   1.000  O
  O97      1.0000 0.23999  0.07273  0.90418  Biso   1.000  O
  O98      1.0000 0.93964  0.07623  0.07068  Biso   1.000  O
  O99      1.0000 0.06591  0.07333  0.07468  Biso   1.000  O
  O100     1.0000 0.23820  0.77547  0.07188  Biso   1.000  O
  O101     1.0000 0.12123  0.95617  0.95591  Biso   1.000  O
  O102     1.0000 0.06709  0.07384  0.77471  Biso   1.000  O
  O103     1.0000 0.94103  0.07614  0.89618  Biso   1.000  O
  O104     1.0000 0.61954  0.45686  0.45622  Biso   1.000  O
  O105     1.0000 0.67368  0.33919  0.63743  Biso   1.000  O
