data_image0
_cell_length_a       18.2704
_cell_length_b       18.2704
_cell_length_c       18.2704
_cell_angle_alpha    60
_cell_angle_beta     60
_cell_angle_gamma    60

_symmetry_space_group_name_H-M    "P 1"
_symmetry_int_tables_number       1

loop_
  _symmetry_equiv_pos_as_xyz
  'x, y, z'

loop_
  _atom_site_label
  _atom_site_occupancy
  _atom_site_fract_x
  _atom_site_fract_y
  _atom_site_fract_z
  _atom_site_thermal_displace_type
  _atom_site_B_iso_or_equiv
  _atom_site_type_symbol
  C1       1.0000 0.29350  0.29349  0.11952  Biso   1.000  C
  C2       1.0000 0.29350  0.29349  0.29349  Biso   1.000  C
  C3       1.0000 0.11953  0.29349  0.29349  Biso   1.000  C
  C4       1.0000 0.29350  0.11952  0.29349  Biso   1.000  C
  C5       1.0000 0.70650  0.70651  0.88048  Biso   1.000  C
  C6       1.0000 0.70650  0.70651  0.70651  Biso   1.000  C
  C7       1.0000 0.70650  0.88048  0.70651  Biso   1.000  C
  C8       1.0000 0.88047  0.70651  0.70651  Biso   1.000  C
  C9       1.0000 0.45540  0.45540  0.93560  Biso   1.000  C
  C10      1.0000 0.45540  0.45540  0.15360  Biso   1.000  C
  C11      1.0000 0.93560  0.15360  0.45540  Biso   1.000  C
  C12      1.0000 0.15360  0.93560  0.45540  Biso   1.000  C
  C13      1.0000 0.45540  0.93560  0.15360  Biso   1.000  C
  C14      1.0000 0.45540  0.15360  0.93560  Biso   1.000  C
  C15      1.0000 0.93560  0.45540  0.45540  Biso   1.000  C
  C16      1.0000 0.15360  0.45540  0.45540  Biso   1.000  C
  C17      1.0000 0.45540  0.15360  0.45540  Biso   1.000  C
  C18      1.0000 0.45540  0.93560  0.45540  Biso   1.000  C
  C19      1.0000 0.93560  0.45540  0.15360  Biso   1.000  C
  C20      1.0000 0.15360  0.45540  0.93560  Biso   1.000  C
  C21      1.0000 0.54460  0.54460  0.06440  Biso   1.000  C
  C22      1.0000 0.54460  0.54460  0.84640  Biso   1.000  C
  C23      1.0000 0.84640  0.06440  0.54460  Biso   1.000  C
  C24      1.0000 0.06440  0.84640  0.54460  Biso   1.000  C
  C25      1.0000 0.06440  0.54460  0.84640  Biso   1.000  C
  C26      1.0000 0.84640  0.54460  0.06440  Biso   1.000  C
  C27      1.0000 0.54460  0.06440  0.54460  Biso   1.000  C
  C28      1.0000 0.54460  0.84640  0.54460  Biso   1.000  C
  C29      1.0000 0.84640  0.54460  0.54460  Biso   1.000  C
  C30      1.0000 0.06440  0.54460  0.54460  Biso   1.000  C
  C31      1.0000 0.54460  0.06440  0.84640  Biso   1.000  C
  C32      1.0000 0.54460  0.84640  0.06440  Biso   1.000  C
  C33      1.0000 0.47338  0.47338  0.96238  Biso   1.000  C
  C34      1.0000 0.47338  0.47338  0.09086  Biso   1.000  C
  C35      1.0000 0.96238  0.09086  0.47338  Biso   1.000  C
  C36      1.0000 0.09086  0.96238  0.47338  Biso   1.000  C
  C37      1.0000 0.47338  0.96238  0.09086  Biso   1.000  C
  C38      1.0000 0.47338  0.09086  0.96238  Biso   1.000  C
  C39      1.0000 0.96238  0.47338  0.47338  Biso   1.000  C
  C40      1.0000 0.09086  0.47338  0.47338  Biso   1.000  C
  C41      1.0000 0.47338  0.09086  0.47338  Biso   1.000  C
  C42      1.0000 0.47338  0.96238  0.47338  Biso   1.000  C
  C43      1.0000 0.96238  0.47338  0.09086  Biso   1.000  C
  C44      1.0000 0.09086  0.47338  0.96238  Biso   1.000  C
  C45      1.0000 0.52662  0.52662  0.03762  Biso   1.000  C
  C46      1.0000 0.52662  0.52662  0.90914  Biso   1.000  C
  C47      1.0000 0.90914  0.03762  0.52662  Biso   1.000  C
  C48      1.0000 0.03762  0.90914  0.52662  Biso   1.000  C
  C49      1.0000 0.03762  0.52662  0.90914  Biso   1.000  C
  C50      1.0000 0.90914  0.52662  0.03762  Biso   1.000  C
  C51      1.0000 0.52662  0.03762  0.52662  Biso   1.000  C
  C52      1.0000 0.52662  0.90914  0.52662  Biso   1.000  C
  C53      1.0000 0.90914  0.52662  0.52662  Biso   1.000  C
  C54      1.0000 0.03762  0.52662  0.52662  Biso   1.000  C
  C55      1.0000 0.52662  0.03762  0.90914  Biso   1.000  C
  C56      1.0000 0.52662  0.90914  0.03762  Biso   1.000  C
  C57      1.0000 0.38861  0.38861  0.11139  Biso   1.000  C
  C58      1.0000 0.44619  0.44619  0.05381  Biso   1.000  C
  C59      1.0000 0.11139  0.11139  0.38861  Biso   1.000  C
  C60      1.0000 0.05381  0.05381  0.44619  Biso   1.000  C
  C61      1.0000 0.38861  0.11139  0.11139  Biso   1.000  C
  C62      1.0000 0.44619  0.05381  0.05381  Biso   1.000  C
  C63      1.0000 0.11139  0.38861  0.38861  Biso   1.000  C
  C64      1.0000 0.05381  0.44619  0.44619  Biso   1.000  C
  C65      1.0000 0.38861  0.11139  0.38861  Biso   1.000  C
  C66      1.0000 0.44619  0.05381  0.44619  Biso   1.000  C
  C67      1.0000 0.11139  0.38861  0.11139  Biso   1.000  C
  C68      1.0000 0.05381  0.44619  0.05381  Biso   1.000  C
  C69      1.0000 0.61139  0.61139  0.88861  Biso   1.000  C
  C70      1.0000 0.55381  0.55381  0.94619  Biso   1.000  C
  C71      1.0000 0.88861  0.88861  0.61139  Biso   1.000  C
  C72      1.0000 0.94619  0.94619  0.55381  Biso   1.000  C
  C73      1.0000 0.88861  0.61139  0.88861  Biso   1.000  C
  C74      1.0000 0.94619  0.55381  0.94619  Biso   1.000  C
  C75      1.0000 0.61139  0.88861  0.61139  Biso   1.000  C
  C76      1.0000 0.55381  0.94619  0.55381  Biso   1.000  C
  C77      1.0000 0.88861  0.61139  0.61139  Biso   1.000  C
  C78      1.0000 0.94619  0.55381  0.55381  Biso   1.000  C
  C79      1.0000 0.61139  0.88861  0.88861  Biso   1.000  C
  C80      1.0000 0.55381  0.94619  0.94619  Biso   1.000  C
  C81      1.0000 0.25000  0.25000  0.25000  Biso   1.000  C
  C82      1.0000 0.75000  0.75000  0.75000  Biso   1.000  C
  C83      1.0000 0.36607  0.36607  0.07299  Biso   1.000  C
  C84      1.0000 0.36607  0.36607  0.19487  Biso   1.000  C
  C85      1.0000 0.07299  0.19487  0.36607  Biso   1.000  C
  C86      1.0000 0.19487  0.07299  0.36607  Biso   1.000  C
  C87      1.0000 0.36607  0.07299  0.19487  Biso   1.000  C
  C88      1.0000 0.36607  0.19487  0.07299  Biso   1.000  C
  C89      1.0000 0.07299  0.36607  0.36607  Biso   1.000  C
  C90      1.0000 0.19487  0.36607  0.36607  Biso   1.000  C
  C91      1.0000 0.36607  0.19487  0.36607  Biso   1.000  C
  C92      1.0000 0.36607  0.07299  0.36607  Biso   1.000  C
  C93      1.0000 0.07299  0.36607  0.19487  Biso   1.000  C
  C94      1.0000 0.19487  0.36607  0.07299  Biso   1.000  C
  C95      1.0000 0.63393  0.63393  0.92701  Biso   1.000  C
  C96      1.0000 0.63393  0.63393  0.80513  Biso   1.000  C
  C97      1.0000 0.80513  0.92701  0.63393  Biso   1.000  C
  C98      1.0000 0.92701  0.80513  0.63393  Biso   1.000  C
  C99      1.0000 0.92701  0.63393  0.80513  Biso   1.000  C
  C100     1.0000 0.80513  0.63393  0.92701  Biso   1.000  C
  C101     1.0000 0.63393  0.92701  0.63393  Biso   1.000  C
  C102     1.0000 0.63393  0.80513  0.63393  Biso   1.000  C
  C103     1.0000 0.80513  0.63393  0.63393  Biso   1.000  C
  C104     1.0000 0.92701  0.63393  0.63393  Biso   1.000  C
  C105     1.0000 0.63393  0.92701  0.80513  Biso   1.000  C
  C106     1.0000 0.63393  0.80513  0.92701  Biso   1.000  C
  O1       1.0000 0.00551  0.84012  0.13407  Biso   1.000  O
  O2       1.0000 0.00551  0.01565  0.13407  Biso   1.000  O
  O3       1.0000 0.82997  0.01565  0.13407  Biso   1.000  O
  O4       1.0000 0.00551  0.01565  0.95853  Biso   1.000  O
  O5       1.0000 0.42061  0.42693  0.54534  Biso   1.000  O
  O6       1.0000 0.42061  0.60246  0.54534  Biso   1.000  O
  O7       1.0000 0.59615  0.42693  0.54534  Biso   1.000  O
  O8       1.0000 0.42061  0.42693  0.72088  Biso   1.000  O
  O9       1.0000 0.87255  0.65827  0.29147  Biso   1.000  O
  O10      1.0000 0.16291  0.17306  0.00111  Biso   1.000  O
  O11      1.0000 0.64812  0.88270  0.29147  Biso   1.000  O
  O12      1.0000 0.16291  0.17306  0.77669  Biso   1.000  O
  O13      1.0000 0.64812  0.17306  0.00111  Biso   1.000  O
  O14      1.0000 0.16291  0.88270  0.29147  Biso   1.000  O
  O15      1.0000 0.87255  0.17306  0.77669  Biso   1.000  O
  O16      1.0000 0.16291  0.65827  0.29147  Biso   1.000  O
  O17      1.0000 0.16291  0.88270  0.77669  Biso   1.000  O
  O18      1.0000 0.87255  0.17306  0.29147  Biso   1.000  O
  O19      1.0000 0.16291  0.65827  0.00111  Biso   1.000  O
  O20      1.0000 0.64812  0.17306  0.29147  Biso   1.000  O
  O21      1.0000 0.55357  0.26953  0.38794  Biso   1.000  O
  O22      1.0000 0.26321  0.78431  0.67830  Biso   1.000  O
  O23      1.0000 0.77800  0.26953  0.38794  Biso   1.000  O
  O24      1.0000 0.26321  0.55988  0.90273  Biso   1.000  O
  O25      1.0000 0.77800  0.26953  0.67830  Biso   1.000  O
  O26      1.0000 0.26321  0.78431  0.38794  Biso   1.000  O
  O27      1.0000 0.55357  0.26953  0.90273  Biso   1.000  O
  O28      1.0000 0.26321  0.55988  0.38794  Biso   1.000  O
  O29      1.0000 0.26321  0.26953  0.90273  Biso   1.000  O
  O30      1.0000 0.55357  0.78431  0.38794  Biso   1.000  O
  O31      1.0000 0.26321  0.26953  0.67830  Biso   1.000  O
  O32      1.0000 0.77800  0.55988  0.38794  Biso   1.000  O
  O33      1.0000 0.80322  0.68152  0.31451  Biso   1.000  O
  O34      1.0000 0.18595  0.19610  0.93178  Biso   1.000  O
  O35      1.0000 0.67137  0.81337  0.31451  Biso   1.000  O
  O36      1.0000 0.18595  0.19610  0.79993  Biso   1.000  O
  O37      1.0000 0.67137  0.19610  0.93178  Biso   1.000  O
  O38      1.0000 0.18595  0.81337  0.31451  Biso   1.000  O
  O39      1.0000 0.80322  0.19610  0.79993  Biso   1.000  O
  O40      1.0000 0.18595  0.68152  0.31451  Biso   1.000  O
  O41      1.0000 0.18595  0.81337  0.79993  Biso   1.000  O
  O42      1.0000 0.80322  0.19610  0.31451  Biso   1.000  O
  O43      1.0000 0.18595  0.68152  0.93178  Biso   1.000  O
  O44      1.0000 0.67137  0.19610  0.31451  Biso   1.000  O
  O45      1.0000 0.62290  0.24648  0.36490  Biso   1.000  O
  O46      1.0000 0.24017  0.76107  0.74763  Biso   1.000  O
  O47      1.0000 0.75475  0.24648  0.36490  Biso   1.000  O
  O48      1.0000 0.24017  0.62922  0.87948  Biso   1.000  O
  O49      1.0000 0.75475  0.24648  0.74763  Biso   1.000  O
  O50      1.0000 0.24017  0.76107  0.36490  Biso   1.000  O
  O51      1.0000 0.62290  0.24648  0.87948  Biso   1.000  O
  O52      1.0000 0.24017  0.62922  0.36490  Biso   1.000  O
  O53      1.0000 0.24017  0.24648  0.87948  Biso   1.000  O
  O54      1.0000 0.62290  0.76107  0.36490  Biso   1.000  O
  O55      1.0000 0.24017  0.24648  0.74763  Biso   1.000  O
  O56      1.0000 0.75475  0.62922  0.36490  Biso   1.000  O
  O57      1.0000 0.81985  0.83000  0.23196  Biso   1.000  O
  O58      1.0000 0.76625  0.77640  0.28556  Biso   1.000  O
  O59      1.0000 0.10339  0.11354  0.94841  Biso   1.000  O
  O60      1.0000 0.15700  0.16714  0.89481  Biso   1.000  O
  O61      1.0000 0.81985  0.11354  0.94841  Biso   1.000  O
  O62      1.0000 0.76625  0.16714  0.89481  Biso   1.000  O
  O63      1.0000 0.10339  0.83000  0.23196  Biso   1.000  O
  O64      1.0000 0.15700  0.77640  0.28556  Biso   1.000  O
  O65      1.0000 0.10339  0.83000  0.94841  Biso   1.000  O
  O66      1.0000 0.15700  0.77640  0.89481  Biso   1.000  O
  O67      1.0000 0.81985  0.11354  0.23196  Biso   1.000  O
  O68      1.0000 0.76625  0.16714  0.28556  Biso   1.000  O
  O69      1.0000 0.60627  0.32904  0.44746  Biso   1.000  O
  O70      1.0000 0.65987  0.27544  0.39385  Biso   1.000  O
  O71      1.0000 0.32272  0.61258  0.73100  Biso   1.000  O
  O72      1.0000 0.26912  0.66619  0.78460  Biso   1.000  O
  O73      1.0000 0.60627  0.32904  0.73100  Biso   1.000  O
  O74      1.0000 0.65987  0.27544  0.78460  Biso   1.000  O
  O75      1.0000 0.32272  0.61258  0.44746  Biso   1.000  O
  O76      1.0000 0.26912  0.66619  0.39385  Biso   1.000  O
  O77      1.0000 0.32272  0.32904  0.73100  Biso   1.000  O
  O78      1.0000 0.26912  0.27544  0.78460  Biso   1.000  O
  O79      1.0000 0.60627  0.61258  0.44746  Biso   1.000  O
  O80      1.0000 0.65987  0.66619  0.39385  Biso   1.000  O
  O81      1.0000 0.96162  0.97177  0.09018  Biso   1.000  O
  O82      1.0000 0.46450  0.47081  0.58923  Biso   1.000  O
  O83      1.0000 0.90662  0.79413  0.20651  Biso   1.000  O
  O84      1.0000 0.07794  0.08809  0.03518  Biso   1.000  O
  O85      1.0000 0.78398  0.91677  0.20651  Biso   1.000  O
  O86      1.0000 0.07794  0.08809  0.91255  Biso   1.000  O
  O87      1.0000 0.78398  0.08809  0.03518  Biso   1.000  O
  O88      1.0000 0.07794  0.91677  0.20651  Biso   1.000  O
  O89      1.0000 0.90662  0.08809  0.91255  Biso   1.000  O
  O90      1.0000 0.07794  0.79413  0.20651  Biso   1.000  O
  O91      1.0000 0.07794  0.91677  0.91255  Biso   1.000  O
  O92      1.0000 0.90662  0.08809  0.20651  Biso   1.000  O
  O93      1.0000 0.07794  0.79413  0.03518  Biso   1.000  O
  O94      1.0000 0.78398  0.08809  0.20651  Biso   1.000  O
  O95      1.0000 0.51950  0.35449  0.47290  Biso   1.000  O
  O96      1.0000 0.34817  0.64845  0.64423  Biso   1.000  O
  O97      1.0000 0.64214  0.35449  0.47290  Biso   1.000  O
  O98      1.0000 0.34817  0.52582  0.76687  Biso   1.000  O
  O99      1.0000 0.64214  0.35449  0.64423  Biso   1.000  O
  O100     1.0000 0.34817  0.64845  0.47290  Biso   1.000  O
  O101     1.0000 0.51950  0.35449  0.76687  Biso   1.000  O
  O102     1.0000 0.34817  0.52582  0.47290  Biso   1.000  O
  O103     1.0000 0.34817  0.35449  0.76687  Biso   1.000  O
  O104     1.0000 0.51950  0.64845  0.47290  Biso   1.000  O
  O105     1.0000 0.34817  0.35449  0.64423  Biso   1.000  O
