data_image0
_cell_length_a       18.228
_cell_length_b       18.228
_cell_length_c       18.228
_cell_angle_alpha    60
_cell_angle_beta     60
_cell_angle_gamma    60

_symmetry_space_group_name_H-M    "P 1"
_symmetry_int_tables_number       1

loop_
  _symmetry_equiv_pos_as_xyz
  'x, y, z'

loop_
  _atom_site_label
  _atom_site_occupancy
  _atom_site_fract_x
  _atom_site_fract_y
  _atom_site_fract_z
  _atom_site_thermal_displace_type
  _atom_site_B_iso_or_equiv
  _atom_site_type_symbol
  Zn1      1.0000 0.29358  0.29359  0.11924  Biso   1.000  Zn
  Zn2      1.0000 0.29358  0.29359  0.29359  Biso   1.000  Zn
  Zn3      1.0000 0.11923  0.29359  0.29359  Biso   1.000  Zn
  Zn4      1.0000 0.29358  0.11924  0.29359  Biso   1.000  Zn
  Zn5      1.0000 0.70642  0.70641  0.88076  Biso   1.000  Zn
  Zn6      1.0000 0.70642  0.70641  0.70641  Biso   1.000  Zn
  Zn7      1.0000 0.70642  0.88076  0.70641  Biso   1.000  Zn
  Zn8      1.0000 0.88077  0.70641  0.70641  Biso   1.000  Zn
  H1       1.0000 0.45570  0.45570  0.93670  Biso   1.000  H
  H2       1.0000 0.45570  0.45570  0.15190  Biso   1.000  H
  H3       1.0000 0.93670  0.15190  0.45570  Biso   1.000  H
  H4       1.0000 0.15190  0.93670  0.45570  Biso   1.000  H
  H5       1.0000 0.45570  0.93670  0.15190  Biso   1.000  H
  H6       1.0000 0.45570  0.15190  0.93670  Biso   1.000  H
  H7       1.0000 0.93670  0.45570  0.45570  Biso   1.000  H
  H8       1.0000 0.15190  0.45570  0.45570  Biso   1.000  H
  H9       1.0000 0.45570  0.15190  0.45570  Biso   1.000  H
  H10      1.0000 0.45570  0.93670  0.45570  Biso   1.000  H
  H11      1.0000 0.93670  0.45570  0.15190  Biso   1.000  H
  H12      1.0000 0.15190  0.45570  0.93670  Biso   1.000  H
  H13      1.0000 0.54430  0.54430  0.06330  Biso   1.000  H
  H14      1.0000 0.54430  0.54430  0.84810  Biso   1.000  H
  H15      1.0000 0.84810  0.06330  0.54430  Biso   1.000  H
  H16      1.0000 0.06330  0.84810  0.54430  Biso   1.000  H
  H17      1.0000 0.06330  0.54430  0.84810  Biso   1.000  H
  H18      1.0000 0.84810  0.54430  0.06330  Biso   1.000  H
  H19      1.0000 0.54430  0.06330  0.54430  Biso   1.000  H
  H20      1.0000 0.54430  0.84810  0.54430  Biso   1.000  H
  H21      1.0000 0.84810  0.54430  0.54430  Biso   1.000  H
  H22      1.0000 0.06330  0.54430  0.54430  Biso   1.000  H
  H23      1.0000 0.54430  0.06330  0.84810  Biso   1.000  H
  H24      1.0000 0.54430  0.84810  0.06330  Biso   1.000  H
  C1       1.0000 0.47340  0.47340  0.96356  Biso   1.000  C
  C2       1.0000 0.47340  0.47340  0.08964  Biso   1.000  C
  C3       1.0000 0.96356  0.08964  0.47340  Biso   1.000  C
  C4       1.0000 0.08964  0.96356  0.47340  Biso   1.000  C
  C5       1.0000 0.47340  0.96356  0.08964  Biso   1.000  C
  C6       1.0000 0.47340  0.08964  0.96356  Biso   1.000  C
  C7       1.0000 0.96356  0.47340  0.47340  Biso   1.000  C
  C8       1.0000 0.08964  0.47340  0.47340  Biso   1.000  C
  C9       1.0000 0.47340  0.08964  0.47340  Biso   1.000  C
  C10      1.0000 0.47340  0.96356  0.47340  Biso   1.000  C
  C11      1.0000 0.96356  0.47340  0.08964  Biso   1.000  C
  C12      1.0000 0.08964  0.47340  0.96356  Biso   1.000  C
  C13      1.0000 0.52660  0.52660  0.03644  Biso   1.000  C
  C14      1.0000 0.52660  0.52660  0.91036  Biso   1.000  C
  C15      1.0000 0.91036  0.03644  0.52660  Biso   1.000  C
  C16      1.0000 0.03644  0.91036  0.52660  Biso   1.000  C
  C17      1.0000 0.03644  0.52660  0.91036  Biso   1.000  C
  C18      1.0000 0.91036  0.52660  0.03644  Biso   1.000  C
  C19      1.0000 0.52660  0.03644  0.52660  Biso   1.000  C
  C20      1.0000 0.52660  0.91036  0.52660  Biso   1.000  C
  C21      1.0000 0.91036  0.52660  0.52660  Biso   1.000  C
  C22      1.0000 0.03644  0.52660  0.52660  Biso   1.000  C
  C23      1.0000 0.52660  0.03644  0.91036  Biso   1.000  C
  C24      1.0000 0.52660  0.91036  0.03644  Biso   1.000  C
  C25      1.0000 0.38850  0.38850  0.11150  Biso   1.000  C
  C26      1.0000 0.44610  0.44610  0.05390  Biso   1.000  C
  C27      1.0000 0.11150  0.11150  0.38850  Biso   1.000  C
  C28      1.0000 0.05390  0.05390  0.44610  Biso   1.000  C
  C29      1.0000 0.38850  0.11150  0.11150  Biso   1.000  C
  C30      1.0000 0.44610  0.05390  0.05390  Biso   1.000  C
  C31      1.0000 0.11150  0.38850  0.38850  Biso   1.000  C
  C32      1.0000 0.05390  0.44610  0.44610  Biso   1.000  C
  C33      1.0000 0.38850  0.11150  0.38850  Biso   1.000  C
  C34      1.0000 0.44610  0.05390  0.44610  Biso   1.000  C
  C35      1.0000 0.11150  0.38850  0.11150  Biso   1.000  C
  C36      1.0000 0.05390  0.44610  0.05390  Biso   1.000  C
  C37      1.0000 0.61150  0.61150  0.88850  Biso   1.000  C
  C38      1.0000 0.55390  0.55390  0.94610  Biso   1.000  C
  C39      1.0000 0.88850  0.88850  0.61150  Biso   1.000  C
  C40      1.0000 0.94610  0.94610  0.55390  Biso   1.000  C
  C41      1.0000 0.88850  0.61150  0.88850  Biso   1.000  C
  C42      1.0000 0.94610  0.55390  0.94610  Biso   1.000  C
  C43      1.0000 0.61150  0.88850  0.61150  Biso   1.000  C
  C44      1.0000 0.55390  0.94610  0.55390  Biso   1.000  C
  C45      1.0000 0.88850  0.61150  0.61150  Biso   1.000  C
  C46      1.0000 0.94610  0.55390  0.55390  Biso   1.000  C
  C47      1.0000 0.61150  0.88850  0.88850  Biso   1.000  C
  C48      1.0000 0.55390  0.94610  0.94610  Biso   1.000  C
  O1       1.0000 0.25000  0.25000  0.25000  Biso   1.000  O
  O2       1.0000 0.75000  0.75000  0.75000  Biso   1.000  O
  O3       1.0000 0.36610  0.36610  0.07322  Biso   1.000  O
  O4       1.0000 0.36610  0.36610  0.19458  Biso   1.000  O
  O5       1.0000 0.07322  0.19458  0.36610  Biso   1.000  O
  O6       1.0000 0.19458  0.07322  0.36610  Biso   1.000  O
  O7       1.0000 0.36610  0.07322  0.19458  Biso   1.000  O
  O8       1.0000 0.36610  0.19458  0.07322  Biso   1.000  O
  O9       1.0000 0.07322  0.36610  0.36610  Biso   1.000  O
  O10      1.0000 0.19458  0.36610  0.36610  Biso   1.000  O
  O11      1.0000 0.36610  0.19458  0.36610  Biso   1.000  O
  O12      1.0000 0.36610  0.07322  0.36610  Biso   1.000  O
  O13      1.0000 0.07322  0.36610  0.19458  Biso   1.000  O
  O14      1.0000 0.19458  0.36610  0.07322  Biso   1.000  O
  O15      1.0000 0.63390  0.63390  0.92678  Biso   1.000  O
  O16      1.0000 0.63390  0.63390  0.80542  Biso   1.000  O
  O17      1.0000 0.80542  0.92678  0.63390  Biso   1.000  O
  O18      1.0000 0.92678  0.80542  0.63390  Biso   1.000  O
  O19      1.0000 0.92678  0.63390  0.80542  Biso   1.000  O
  O20      1.0000 0.80542  0.63390  0.92678  Biso   1.000  O
  O21      1.0000 0.63390  0.92678  0.63390  Biso   1.000  O
  O22      1.0000 0.63390  0.80542  0.63390  Biso   1.000  O
  O23      1.0000 0.80542  0.63390  0.63390  Biso   1.000  O
  O24      1.0000 0.92678  0.63390  0.63390  Biso   1.000  O
  O25      1.0000 0.63390  0.92678  0.80542  Biso   1.000  O
  O26      1.0000 0.63390  0.80542  0.92678  Biso   1.000  O
  Zn9      1.0000 0.00000  0.00000  0.00000  Biso   1.000  Zn
  Zn10     1.0000 0.57632  0.41661  0.59045  Biso   1.000  Zn
  Zn11     1.0000 0.57632  0.59059  0.59045  Biso   1.000  Zn
  Zn12     1.0000 0.00000  0.17398  0.00000  Biso   1.000  Zn
  Zn13     1.0000 0.99996  0.99992  0.17418  Biso   1.000  Zn
  Zn14     1.0000 0.17375  0.00018  0.99987  Biso   1.000  Zn
  Zn15     1.0000 0.57636  0.59067  0.41627  Biso   1.000  Zn
  Zn16     1.0000 0.40257  0.59042  0.59058  Biso   1.000  Zn
  H25      1.0000 0.82825  0.84299  0.36462  Biso   1.000  H
  H26      1.0000 0.82730  0.84453  0.13665  Biso   1.000  H
  H27      1.0000 0.82441  0.13670  0.84538  Biso   1.000  H
  H28      1.0000 0.74806  0.45248  0.22583  Biso   1.000  H
  H29      1.0000 0.74902  0.22510  0.45380  Biso   1.000  H
  H30      1.0000 0.75191  0.22310  0.74507  Biso   1.000  H
  H31      1.0000 0.74806  0.74761  0.22583  Biso   1.000  H
  H32      1.0000 0.74901  0.74606  0.45380  Biso   1.000  H
  H33      1.0000 0.75191  0.45389  0.74507  Biso   1.000  H
  H34      1.0000 0.82825  0.13812  0.36462  Biso   1.000  H
  H35      1.0000 0.82730  0.36549  0.13665  Biso   1.000  H
  H36      1.0000 0.82441  0.36750  0.84538  Biso   1.000  H
  C49      1.0000 0.91262  0.91166  0.17866  Biso   1.000  C
  C50      1.0000 0.84848  0.84701  0.23804  Biso   1.000  C
  C51      1.0000 0.81256  0.82154  0.33821  Biso   1.000  C
  C52      1.0000 0.81261  0.82298  0.20001  Biso   1.000  C
  C53      1.0000 0.17467  0.91227  0.91241  Biso   1.000  C
  C54      1.0000 0.81100  0.19996  0.82164  Biso   1.000  C
  C55      1.0000 0.66369  0.41955  0.41179  Biso   1.000  C
  C56      1.0000 0.72784  0.35014  0.35241  Biso   1.000  C
  C57      1.0000 0.76375  0.38892  0.25224  Biso   1.000  C
  C58      1.0000 0.76371  0.25221  0.39044  Biso   1.000  C
  C59      1.0000 0.40165  0.41596  0.67804  Biso   1.000  C
  C60      1.0000 0.76532  0.24921  0.76881  Biso   1.000  C
  C61      1.0000 0.66369  0.67893  0.41179  Biso   1.000  C
  C62      1.0000 0.72784  0.74358  0.35241  Biso   1.000  C
  C63      1.0000 0.76375  0.76906  0.25224  Biso   1.000  C
  C64      1.0000 0.76371  0.76761  0.39044  Biso   1.000  C
  C65      1.0000 0.40165  0.67832  0.67804  Biso   1.000  C
  C66      1.0000 0.76532  0.39064  0.76881  Biso   1.000  C
  C67      1.0000 0.91262  0.17104  0.17866  Biso   1.000  C
  C68      1.0000 0.84848  0.24045  0.23804  Biso   1.000  C
  C69      1.0000 0.81256  0.20167  0.33821  Biso   1.000  C
  C70      1.0000 0.81261  0.33838  0.20001  Biso   1.000  C
  C71      1.0000 0.17467  0.17463  0.91241  Biso   1.000  C
  C72      1.0000 0.81100  0.34138  0.82164  Biso   1.000  C
  C73      1.0000 0.17270  0.91136  0.17856  Biso   1.000  C
  C74      1.0000 0.90923  0.17572  0.91330  Biso   1.000  C
  C75      1.0000 0.84826  0.24067  0.84438  Biso   1.000  C
  C76      1.0000 0.40362  0.67923  0.41189  Biso   1.000  C
  C77      1.0000 0.66709  0.41487  0.67715  Biso   1.000  C
  C78      1.0000 0.72806  0.34992  0.74607  Biso   1.000  C
  O27      1.0000 0.93010  0.92794  0.22255  Biso   1.000  O
  O28      1.0000 0.92811  0.92716  0.09583  Biso   1.000  O
  O29      1.0000 0.22393  0.92776  0.92870  Biso   1.000  O
  O30      1.0000 0.09354  0.92756  0.92860  Biso   1.000  O
  O31      1.0000 0.92890  0.09409  0.92701  Biso   1.000  O
  O32      1.0000 0.64622  0.49721  0.36790  Biso   1.000  O
  O33      1.0000 0.64821  0.36771  0.49462  Biso   1.000  O
  O34      1.0000 0.35239  0.49700  0.66175  Biso   1.000  O
  O35      1.0000 0.48278  0.36631  0.66185  Biso   1.000  O
  O36      1.0000 0.64742  0.36661  0.66344  Biso   1.000  O
  O37      1.0000 0.64622  0.66265  0.36790  Biso   1.000  O
  O38      1.0000 0.64821  0.66344  0.49462  Biso   1.000  O
  O39      1.0000 0.35239  0.66283  0.66175  Biso   1.000  O
  O40      1.0000 0.48278  0.66303  0.66185  Biso   1.000  O
  O41      1.0000 0.64742  0.49650  0.66344  Biso   1.000  O
  O42      1.0000 0.93010  0.09338  0.22255  Biso   1.000  O
  O43      1.0000 0.92811  0.22288  0.09583  Biso   1.000  O
  O44      1.0000 0.22393  0.09360  0.92870  Biso   1.000  O
  O45      1.0000 0.09354  0.22428  0.92860  Biso   1.000  O
  O46      1.0000 0.92890  0.22398  0.92701  Biso   1.000  O
  O47      1.0000 0.04201  0.04483  0.04231  Biso   1.000  O
  O48      1.0000 0.09385  0.92804  0.22404  Biso   1.000  O
  O49      1.0000 0.22364  0.92815  0.09405  Biso   1.000  O
  O50      1.0000 0.53431  0.54576  0.54815  Biso   1.000  O
  O51      1.0000 0.48246  0.66255  0.36641  Biso   1.000  O
