data_image0
_cell_length_a       18.2205
_cell_length_b       18.2205
_cell_length_c       18.2205
_cell_angle_alpha    60
_cell_angle_beta     60
_cell_angle_gamma    60

_symmetry_space_group_name_H-M    "P 1"
_symmetry_int_tables_number       1

loop_
  _symmetry_equiv_pos_as_xyz
  'x, y, z'

loop_
  _atom_site_label
  _atom_site_occupancy
  _atom_site_fract_x
  _atom_site_fract_y
  _atom_site_fract_z
  _atom_site_thermal_displace_type
  _atom_site_B_iso_or_equiv
  _atom_site_type_symbol
  Zn1      1.0000 0.29361  0.29361  0.11917  Biso   1.000  Zn
  Zn2      1.0000 0.29361  0.29361  0.29361  Biso   1.000  Zn
  Zn3      1.0000 0.11917  0.29361  0.29361  Biso   1.000  Zn
  Zn4      1.0000 0.29361  0.11917  0.29361  Biso   1.000  Zn
  Zn5      1.0000 0.70639  0.70639  0.88083  Biso   1.000  Zn
  Zn6      1.0000 0.70639  0.70639  0.70639  Biso   1.000  Zn
  Zn7      1.0000 0.70639  0.88083  0.70639  Biso   1.000  Zn
  Zn8      1.0000 0.88083  0.70639  0.70639  Biso   1.000  Zn
  H1       1.0000 0.45580  0.45580  0.93700  Biso   1.000  H
  H2       1.0000 0.45580  0.45580  0.15140  Biso   1.000  H
  H3       1.0000 0.93700  0.15140  0.45580  Biso   1.000  H
  H4       1.0000 0.15140  0.93700  0.45580  Biso   1.000  H
  H5       1.0000 0.45580  0.93700  0.15140  Biso   1.000  H
  H6       1.0000 0.45580  0.15140  0.93700  Biso   1.000  H
  H7       1.0000 0.93700  0.45580  0.45580  Biso   1.000  H
  H8       1.0000 0.15140  0.45580  0.45580  Biso   1.000  H
  H9       1.0000 0.45580  0.15140  0.45580  Biso   1.000  H
  H10      1.0000 0.45580  0.93700  0.45580  Biso   1.000  H
  H11      1.0000 0.93700  0.45580  0.15140  Biso   1.000  H
  H12      1.0000 0.15140  0.45580  0.93700  Biso   1.000  H
  H13      1.0000 0.54420  0.54420  0.06300  Biso   1.000  H
  H14      1.0000 0.54420  0.54420  0.84860  Biso   1.000  H
  H15      1.0000 0.84860  0.06300  0.54420  Biso   1.000  H
  H16      1.0000 0.06300  0.84860  0.54420  Biso   1.000  H
  H17      1.0000 0.06300  0.54420  0.84860  Biso   1.000  H
  H18      1.0000 0.84860  0.54420  0.06300  Biso   1.000  H
  H19      1.0000 0.54420  0.06300  0.54420  Biso   1.000  H
  H20      1.0000 0.54420  0.84860  0.54420  Biso   1.000  H
  H21      1.0000 0.84860  0.54420  0.54420  Biso   1.000  H
  H22      1.0000 0.06300  0.54420  0.54420  Biso   1.000  H
  H23      1.0000 0.54420  0.06300  0.84860  Biso   1.000  H
  H24      1.0000 0.54420  0.84860  0.06300  Biso   1.000  H
  C1       1.0000 0.47350  0.47350  0.96390  Biso   1.000  C
  C2       1.0000 0.47350  0.47350  0.08910  Biso   1.000  C
  C3       1.0000 0.96390  0.08910  0.47350  Biso   1.000  C
  C4       1.0000 0.08910  0.96390  0.47350  Biso   1.000  C
  C5       1.0000 0.47350  0.96390  0.08910  Biso   1.000  C
  C6       1.0000 0.47350  0.08910  0.96390  Biso   1.000  C
  C7       1.0000 0.96390  0.47350  0.47350  Biso   1.000  C
  C8       1.0000 0.08910  0.47350  0.47350  Biso   1.000  C
  C9       1.0000 0.47350  0.08910  0.47350  Biso   1.000  C
  C10      1.0000 0.47350  0.96390  0.47350  Biso   1.000  C
  C11      1.0000 0.96390  0.47350  0.08910  Biso   1.000  C
  C12      1.0000 0.08910  0.47350  0.96390  Biso   1.000  C
  C13      1.0000 0.52650  0.52650  0.03610  Biso   1.000  C
  C14      1.0000 0.52650  0.52650  0.91090  Biso   1.000  C
  C15      1.0000 0.91090  0.03610  0.52650  Biso   1.000  C
  C16      1.0000 0.03610  0.91090  0.52650  Biso   1.000  C
  C17      1.0000 0.03610  0.52650  0.91090  Biso   1.000  C
  C18      1.0000 0.91090  0.52650  0.03610  Biso   1.000  C
  C19      1.0000 0.52650  0.03610  0.52650  Biso   1.000  C
  C20      1.0000 0.52650  0.91090  0.52650  Biso   1.000  C
  C21      1.0000 0.91090  0.52650  0.52650  Biso   1.000  C
  C22      1.0000 0.03610  0.52650  0.52650  Biso   1.000  C
  C23      1.0000 0.52650  0.03610  0.91090  Biso   1.000  C
  C24      1.0000 0.52650  0.91090  0.03610  Biso   1.000  C
  C25      1.0000 0.38850  0.38850  0.11150  Biso   1.000  C
  C26      1.0000 0.44660  0.44660  0.05340  Biso   1.000  C
  C27      1.0000 0.11150  0.11150  0.38850  Biso   1.000  C
  C28      1.0000 0.05340  0.05340  0.44660  Biso   1.000  C
  C29      1.0000 0.38850  0.11150  0.11150  Biso   1.000  C
  C30      1.0000 0.44660  0.05340  0.05340  Biso   1.000  C
  C31      1.0000 0.11150  0.38850  0.38850  Biso   1.000  C
  C32      1.0000 0.05340  0.44660  0.44660  Biso   1.000  C
  C33      1.0000 0.38850  0.11150  0.38850  Biso   1.000  C
  C34      1.0000 0.44660  0.05340  0.44660  Biso   1.000  C
  C35      1.0000 0.11150  0.38850  0.11150  Biso   1.000  C
  C36      1.0000 0.05340  0.44660  0.05340  Biso   1.000  C
  C37      1.0000 0.61150  0.61150  0.88850  Biso   1.000  C
  C38      1.0000 0.55340  0.55340  0.94660  Biso   1.000  C
  C39      1.0000 0.88850  0.88850  0.61150  Biso   1.000  C
  C40      1.0000 0.94660  0.94660  0.55340  Biso   1.000  C
  C41      1.0000 0.88850  0.61150  0.88850  Biso   1.000  C
  C42      1.0000 0.94660  0.55340  0.94660  Biso   1.000  C
  C43      1.0000 0.61150  0.88850  0.61150  Biso   1.000  C
  C44      1.0000 0.55340  0.94660  0.55340  Biso   1.000  C
  C45      1.0000 0.88850  0.61150  0.61150  Biso   1.000  C
  C46      1.0000 0.94660  0.55340  0.55340  Biso   1.000  C
  C47      1.0000 0.61150  0.88850  0.88850  Biso   1.000  C
  C48      1.0000 0.55340  0.94660  0.94660  Biso   1.000  C
  O1       1.0000 0.25000  0.25000  0.25000  Biso   1.000  O
  O2       1.0000 0.75000  0.75000  0.75000  Biso   1.000  O
  O3       1.0000 0.36609  0.36609  0.07351  Biso   1.000  O
  O4       1.0000 0.36609  0.36609  0.19431  Biso   1.000  O
  O5       1.0000 0.07351  0.19431  0.36609  Biso   1.000  O
  O6       1.0000 0.19431  0.07351  0.36609  Biso   1.000  O
  O7       1.0000 0.36609  0.07351  0.19431  Biso   1.000  O
  O8       1.0000 0.36609  0.19431  0.07351  Biso   1.000  O
  O9       1.0000 0.07351  0.36609  0.36609  Biso   1.000  O
  O10      1.0000 0.19431  0.36609  0.36609  Biso   1.000  O
  O11      1.0000 0.36609  0.19431  0.36609  Biso   1.000  O
  O12      1.0000 0.36609  0.07351  0.36609  Biso   1.000  O
  O13      1.0000 0.07351  0.36609  0.19431  Biso   1.000  O
  O14      1.0000 0.19431  0.36609  0.07351  Biso   1.000  O
  O15      1.0000 0.63391  0.63391  0.92649  Biso   1.000  O
  O16      1.0000 0.63391  0.63391  0.80569  Biso   1.000  O
  O17      1.0000 0.80569  0.92649  0.63391  Biso   1.000  O
  O18      1.0000 0.92649  0.80569  0.63391  Biso   1.000  O
  O19      1.0000 0.92649  0.63391  0.80569  Biso   1.000  O
  O20      1.0000 0.80569  0.63391  0.92649  Biso   1.000  O
  O21      1.0000 0.63391  0.92649  0.63391  Biso   1.000  O
  O22      1.0000 0.63391  0.80569  0.63391  Biso   1.000  O
  O23      1.0000 0.80569  0.63391  0.63391  Biso   1.000  O
  O24      1.0000 0.92649  0.63391  0.63391  Biso   1.000  O
  O25      1.0000 0.63391  0.92649  0.80569  Biso   1.000  O
  O26      1.0000 0.63391  0.80569  0.92649  Biso   1.000  O
  Zn9      1.0000 0.99590  0.97620  0.87383  Biso   1.000  Zn
  Zn10     1.0000 0.99594  0.14882  0.87378  Biso   1.000  Zn
  Zn11     1.0000 0.16857  0.97620  0.87383  Biso   1.000  Zn
  Zn12     1.0000 0.99595  0.97615  0.04645  Biso   1.000  Zn
  Zn13     1.0000 0.58035  0.56441  0.46206  Biso   1.000  Zn
  Zn14     1.0000 0.58031  0.39179  0.46211  Biso   1.000  Zn
  Zn15     1.0000 0.40769  0.56441  0.46206  Biso   1.000  Zn
  Zn16     1.0000 0.58031  0.56446  0.28944  Biso   1.000  Zn
  C49      1.0000 0.81616  0.17632  0.69505  Biso   1.000  C
  C50      1.0000 0.19628  0.79720  0.69305  Biso   1.000  C
  C51      1.0000 0.81556  0.79820  0.07396  Biso   1.000  C
  C52      1.0000 0.81718  0.31108  0.69405  Biso   1.000  C
  C53      1.0000 0.81517  0.31208  0.07416  Biso   1.000  C
  C54      1.0000 0.19609  0.31089  0.69345  Biso   1.000  C
  C55      1.0000 0.32696  0.79741  0.07395  Biso   1.000  C
  C56      1.0000 0.32797  0.79541  0.69484  Biso   1.000  C
  C57      1.0000 0.32677  0.17633  0.69584  Biso   1.000  C
  C58      1.0000 0.19220  0.79641  0.20872  Biso   1.000  C
  C59      1.0000 0.81308  0.17652  0.20973  Biso   1.000  C
  C60      1.0000 0.81408  0.79580  0.20853  Biso   1.000  C
  C61      1.0000 0.76009  0.36429  0.64084  Biso   1.000  C
  C62      1.0000 0.37997  0.74341  0.64284  Biso   1.000  C
  C63      1.0000 0.76069  0.74241  0.26193  Biso   1.000  C
  C64      1.0000 0.75908  0.22953  0.64184  Biso   1.000  C
  C65      1.0000 0.76108  0.22852  0.26173  Biso   1.000  C
  C66      1.0000 0.38016  0.22972  0.64244  Biso   1.000  C
  C67      1.0000 0.24929  0.74319  0.26194  Biso   1.000  C
  C68      1.0000 0.24828  0.74520  0.64105  Biso   1.000  C
  C69      1.0000 0.24949  0.36428  0.64005  Biso   1.000  C
  C70      1.0000 0.38405  0.74420  0.12717  Biso   1.000  C
  C71      1.0000 0.76318  0.36408  0.12616  Biso   1.000  C
  C72      1.0000 0.76217  0.74481  0.12736  Biso   1.000  C
  C73      1.0000 0.84365  0.21478  0.72154  Biso   1.000  C
  C74      1.0000 0.90210  0.15633  0.77999  Biso   1.000  C
  C75      1.0000 0.23453  0.82390  0.11241  Biso   1.000  C
  C76      1.0000 0.17608  0.88235  0.05396  Biso   1.000  C
  C77      1.0000 0.73261  0.32583  0.61435  Biso   1.000  C
  C78      1.0000 0.67415  0.38428  0.55590  Biso   1.000  C
  C79      1.0000 0.34172  0.71671  0.22348  Biso   1.000  C
  C80      1.0000 0.40017  0.65825  0.28193  Biso   1.000  C
  C81      1.0000 0.84345  0.82370  0.11261  Biso   1.000  C
  C82      1.0000 0.90163  0.88187  0.05444  Biso   1.000  C
  C83      1.0000 0.23472  0.21498  0.72134  Biso   1.000  C
  C84      1.0000 0.17655  0.15680  0.77951  Biso   1.000  C
  C85      1.0000 0.73280  0.71691  0.22328  Biso   1.000  C
  C86      1.0000 0.67463  0.65873  0.28145  Biso   1.000  C
  C87      1.0000 0.34153  0.32563  0.61455  Biso   1.000  C
  C88      1.0000 0.39970  0.38380  0.55638  Biso   1.000  C
  C89      1.0000 0.23493  0.82350  0.72114  Biso   1.000  C
  C90      1.0000 0.17676  0.88167  0.77931  Biso   1.000  C
  C91      1.0000 0.84325  0.21518  0.11281  Biso   1.000  C
  C92      1.0000 0.90142  0.15701  0.05464  Biso   1.000  C
  C93      1.0000 0.34132  0.71711  0.61475  Biso   1.000  C
  C94      1.0000 0.39950  0.65893  0.55658  Biso   1.000  C
  C95      1.0000 0.73301  0.32543  0.22308  Biso   1.000  C
  C96      1.0000 0.67483  0.38360  0.28125  Biso   1.000  C
  O27      1.0000 0.92461  0.07241  0.80091  Biso   1.000  O
  O28      1.0000 0.92268  0.90486  0.97089  Biso   1.000  O
  O29      1.0000 0.09175  0.90450  0.80133  Biso   1.000  O
  O30      1.0000 0.92302  0.19681  0.80250  Biso   1.000  O
  O31      1.0000 0.09300  0.19631  0.80057  Biso   1.000  O
  O32      1.0000 0.92344  0.19717  0.96963  Biso   1.000  O
  O33      1.0000 0.21656  0.90327  0.97005  Biso   1.000  O
  O34      1.0000 0.21606  0.07325  0.80250  Biso   1.000  O
  O35      1.0000 0.21692  0.90369  0.80214  Biso   1.000  O
  O36      1.0000 0.09216  0.90486  0.09444  Biso   1.000  O
  O37      1.0000 0.92462  0.90293  0.09395  Biso   1.000  O
  O38      1.0000 0.92425  0.07200  0.09480  Biso   1.000  O
  O39      1.0000 0.65164  0.46819  0.53498  Biso   1.000  O
  O40      1.0000 0.65357  0.63574  0.36500  Biso   1.000  O
  O41      1.0000 0.48451  0.63610  0.53456  Biso   1.000  O
  O42      1.0000 0.65324  0.34380  0.53339  Biso   1.000  O
  O43      1.0000 0.48326  0.34429  0.53532  Biso   1.000  O
  O44      1.0000 0.65282  0.34344  0.36626  Biso   1.000  O
  O45      1.0000 0.35969  0.63734  0.36584  Biso   1.000  O
  O46      1.0000 0.36019  0.46736  0.53339  Biso   1.000  O
  O47      1.0000 0.35933  0.63692  0.53375  Biso   1.000  O
  O48      1.0000 0.48409  0.63574  0.24145  Biso   1.000  O
  O49      1.0000 0.65164  0.63767  0.24194  Biso   1.000  O
  O50      1.0000 0.65200  0.46861  0.24109  Biso   1.000  O
  O51      1.0000 0.03909  0.01934  0.91698  Biso   1.000  O
  O52      1.0000 0.53716  0.52127  0.41891  Biso   1.000  O
  H25      1.0000 0.11998  0.82006  0.71443  Biso   1.000  H
  H26      1.0000 0.36003  0.81679  0.71770  Biso   1.000  H
  H27      1.0000 0.45627  0.72055  0.62146  Biso   1.000  H
  H28      1.0000 0.21623  0.72381  0.61819  Biso   1.000  H
  H29      1.0000 0.35882  0.10003  0.71895  Biso   1.000  H
  H30      1.0000 0.45645  0.19766  0.62132  Biso   1.000  H
  H31      1.0000 0.83669  0.82131  0.99767  Biso   1.000  H
  H32      1.0000 0.73906  0.72368  0.09530  Biso   1.000  H
  H33      1.0000 0.83971  0.34314  0.71576  Biso   1.000  H
  H34      1.0000 0.83656  0.34414  0.99786  Biso   1.000  H
  H35      1.0000 0.46036  0.72249  0.09510  Biso   1.000  H
  H36      1.0000 0.74031  0.44039  0.09411  Biso   1.000  H
  H37      1.0000 0.11980  0.34294  0.71457  Biso   1.000  H
  H38      1.0000 0.21743  0.44057  0.61694  Biso   1.000  H
  H39      1.0000 0.83719  0.81693  0.24059  Biso   1.000  H
  H40      1.0000 0.73956  0.71930  0.33822  Biso   1.000  H
  H41      1.0000 0.21722  0.72066  0.33824  Biso   1.000  H
  H42      1.0000 0.83594  0.10022  0.24178  Biso   1.000  H
  H43      1.0000 0.73969  0.19647  0.33803  Biso   1.000  H
  H44      1.0000 0.11590  0.81811  0.24079  Biso   1.000  H
  H45      1.0000 0.73654  0.19747  0.62013  Biso   1.000  H
  H46      1.0000 0.83787  0.10001  0.71758  Biso   1.000  H
  H47      1.0000 0.73838  0.44059  0.61831  Biso   1.000  H
