data_image0
_cell_length_a       18.2888
_cell_length_b       18.2888
_cell_length_c       18.2888
_cell_angle_alpha    60
_cell_angle_beta     60
_cell_angle_gamma    60

_symmetry_space_group_name_H-M    "P 1"
_symmetry_int_tables_number       1

loop_
  _symmetry_equiv_pos_as_xyz
  'x, y, z'

loop_
  _atom_site_label
  _atom_site_occupancy
  _atom_site_fract_x
  _atom_site_fract_y
  _atom_site_fract_z
  _atom_site_thermal_displace_type
  _atom_site_B_iso_or_equiv
  _atom_site_type_symbol
  Zn1      1.0000 0.29344  0.29345  0.11966  Biso   1.000  Zn
  Zn2      1.0000 0.29344  0.29345  0.29345  Biso   1.000  Zn
  Zn3      1.0000 0.11965  0.29345  0.29345  Biso   1.000  Zn
  Zn4      1.0000 0.29344  0.11966  0.29345  Biso   1.000  Zn
  Zn5      1.0000 0.70655  0.70656  0.88034  Biso   1.000  Zn
  Zn6      1.0000 0.70656  0.70655  0.70655  Biso   1.000  Zn
  Zn7      1.0000 0.70655  0.88034  0.70656  Biso   1.000  Zn
  Zn8      1.0000 0.88035  0.70655  0.70655  Biso   1.000  Zn
  H1       1.0000 0.45490  0.45490  0.93490  Biso   1.000  H
  H2       1.0000 0.45490  0.45490  0.15530  Biso   1.000  H
  H3       1.0000 0.93490  0.15530  0.45490  Biso   1.000  H
  H4       1.0000 0.15530  0.93490  0.45490  Biso   1.000  H
  H5       1.0000 0.45490  0.93490  0.15530  Biso   1.000  H
  H6       1.0000 0.45490  0.15530  0.93490  Biso   1.000  H
  H7       1.0000 0.93490  0.45490  0.45490  Biso   1.000  H
  H8       1.0000 0.15530  0.45490  0.45490  Biso   1.000  H
  H9       1.0000 0.45490  0.15530  0.45490  Biso   1.000  H
  H10      1.0000 0.45490  0.93490  0.45490  Biso   1.000  H
  H11      1.0000 0.93490  0.45490  0.15530  Biso   1.000  H
  H12      1.0000 0.15530  0.45490  0.93490  Biso   1.000  H
  H13      1.0000 0.54510  0.54510  0.06510  Biso   1.000  H
  H14      1.0000 0.54510  0.54510  0.84470  Biso   1.000  H
  H15      1.0000 0.84470  0.06510  0.54510  Biso   1.000  H
  H16      1.0000 0.06510  0.84470  0.54510  Biso   1.000  H
  H17      1.0000 0.06510  0.54510  0.84470  Biso   1.000  H
  H18      1.0000 0.84470  0.54510  0.06510  Biso   1.000  H
  H19      1.0000 0.54510  0.06510  0.54510  Biso   1.000  H
  H20      1.0000 0.54510  0.84470  0.54510  Biso   1.000  H
  H21      1.0000 0.84470  0.54510  0.54510  Biso   1.000  H
  H22      1.0000 0.06510  0.54510  0.54510  Biso   1.000  H
  H23      1.0000 0.54510  0.06510  0.84470  Biso   1.000  H
  H24      1.0000 0.54510  0.84470  0.06510  Biso   1.000  H
  C1       1.0000 0.47314  0.47314  0.96174  Biso   1.000  C
  C2       1.0000 0.47314  0.47314  0.09198  Biso   1.000  C
  C3       1.0000 0.96174  0.09198  0.47314  Biso   1.000  C
  C4       1.0000 0.09198  0.96174  0.47314  Biso   1.000  C
  C5       1.0000 0.47314  0.96174  0.09198  Biso   1.000  C
  C6       1.0000 0.47314  0.09198  0.96174  Biso   1.000  C
  C7       1.0000 0.96174  0.47314  0.47314  Biso   1.000  C
  C8       1.0000 0.09198  0.47314  0.47314  Biso   1.000  C
  C9       1.0000 0.47314  0.09198  0.47314  Biso   1.000  C
  C10      1.0000 0.47314  0.96174  0.47314  Biso   1.000  C
  C11      1.0000 0.96174  0.47314  0.09198  Biso   1.000  C
  C12      1.0000 0.09198  0.47314  0.96174  Biso   1.000  C
  C13      1.0000 0.52686  0.52686  0.03826  Biso   1.000  C
  C14      1.0000 0.52686  0.52686  0.90802  Biso   1.000  C
  C15      1.0000 0.90802  0.03826  0.52686  Biso   1.000  C
  C16      1.0000 0.03826  0.90802  0.52686  Biso   1.000  C
  C17      1.0000 0.03826  0.52686  0.90802  Biso   1.000  C
  C18      1.0000 0.90802  0.52686  0.03826  Biso   1.000  C
  C19      1.0000 0.52686  0.03826  0.52686  Biso   1.000  C
  C20      1.0000 0.52686  0.90802  0.52686  Biso   1.000  C
  C21      1.0000 0.90802  0.52686  0.52686  Biso   1.000  C
  C22      1.0000 0.03826  0.52686  0.52686  Biso   1.000  C
  C23      1.0000 0.52686  0.03826  0.90802  Biso   1.000  C
  C24      1.0000 0.52686  0.90802  0.03826  Biso   1.000  C
  C25      1.0000 0.38849  0.38849  0.11151  Biso   1.000  C
  C26      1.0000 0.44624  0.44624  0.05376  Biso   1.000  C
  C27      1.0000 0.11151  0.11151  0.38849  Biso   1.000  C
  C28      1.0000 0.05376  0.05376  0.44624  Biso   1.000  C
  C29      1.0000 0.38849  0.11151  0.11151  Biso   1.000  C
  C30      1.0000 0.44624  0.05376  0.05376  Biso   1.000  C
  C31      1.0000 0.11151  0.38849  0.38849  Biso   1.000  C
  C32      1.0000 0.05376  0.44624  0.44624  Biso   1.000  C
  C33      1.0000 0.38849  0.11151  0.38849  Biso   1.000  C
  C34      1.0000 0.44624  0.05376  0.44624  Biso   1.000  C
  C35      1.0000 0.11151  0.38849  0.11151  Biso   1.000  C
  C36      1.0000 0.05376  0.44624  0.05376  Biso   1.000  C
  C37      1.0000 0.61151  0.61151  0.88849  Biso   1.000  C
  C38      1.0000 0.55376  0.55376  0.94624  Biso   1.000  C
  C39      1.0000 0.88849  0.88849  0.61151  Biso   1.000  C
  C40      1.0000 0.94624  0.94624  0.55376  Biso   1.000  C
  C41      1.0000 0.88849  0.61151  0.88849  Biso   1.000  C
  C42      1.0000 0.94624  0.55376  0.94624  Biso   1.000  C
  C43      1.0000 0.61151  0.88849  0.61151  Biso   1.000  C
  C44      1.0000 0.55376  0.94624  0.55376  Biso   1.000  C
  C45      1.0000 0.88849  0.61151  0.61151  Biso   1.000  C
  C46      1.0000 0.94624  0.55376  0.55376  Biso   1.000  C
  C47      1.0000 0.61151  0.88849  0.88849  Biso   1.000  C
  C48      1.0000 0.55376  0.94624  0.94624  Biso   1.000  C
  O1       1.0000 0.25000  0.25000  0.25000  Biso   1.000  O
  O2       1.0000 0.75000  0.75000  0.75000  Biso   1.000  O
  O3       1.0000 0.36620  0.36620  0.07286  Biso   1.000  O
  O4       1.0000 0.36620  0.36620  0.19474  Biso   1.000  O
  O5       1.0000 0.07286  0.19474  0.36620  Biso   1.000  O
  O6       1.0000 0.19474  0.07286  0.36620  Biso   1.000  O
  O7       1.0000 0.36620  0.07286  0.19474  Biso   1.000  O
  O8       1.0000 0.36620  0.19474  0.07286  Biso   1.000  O
  O9       1.0000 0.07286  0.36620  0.36620  Biso   1.000  O
  O10      1.0000 0.19474  0.36620  0.36620  Biso   1.000  O
  O11      1.0000 0.36620  0.19474  0.36620  Biso   1.000  O
  O12      1.0000 0.36620  0.07286  0.36620  Biso   1.000  O
  O13      1.0000 0.07286  0.36620  0.19474  Biso   1.000  O
  O14      1.0000 0.19474  0.36620  0.07286  Biso   1.000  O
  O15      1.0000 0.63380  0.63380  0.92714  Biso   1.000  O
  O16      1.0000 0.63380  0.63380  0.80526  Biso   1.000  O
  O17      1.0000 0.80526  0.92714  0.63380  Biso   1.000  O
  O18      1.0000 0.92714  0.80526  0.63380  Biso   1.000  O
  O19      1.0000 0.92714  0.63380  0.80526  Biso   1.000  O
  O20      1.0000 0.80526  0.63380  0.92714  Biso   1.000  O
  O21      1.0000 0.63380  0.92714  0.63380  Biso   1.000  O
  O22      1.0000 0.63380  0.80526  0.63380  Biso   1.000  O
  O23      1.0000 0.80526  0.63380  0.63380  Biso   1.000  O
  O24      1.0000 0.92714  0.63380  0.63380  Biso   1.000  O
  O25      1.0000 0.63380  0.92714  0.80526  Biso   1.000  O
  O26      1.0000 0.63380  0.80526  0.92714  Biso   1.000  O
  Zn9      1.0000 0.17201  0.97255  0.87057  Biso   1.000  Zn
  Zn10     1.0000 0.58576  0.38630  0.45680  Biso   1.000  Zn
  Zn11     1.0000 0.41175  0.56031  0.45680  Biso   1.000  Zn
  Zn12     1.0000 0.99800  0.14656  0.87057  Biso   1.000  Zn
  Zn13     1.0000 0.99780  0.97235  0.04472  Biso   1.000  Zn
  Zn14     1.0000 0.99793  0.97248  0.87036  Biso   1.000  Zn
  Zn15     1.0000 0.58596  0.56051  0.28265  Biso   1.000  Zn
  Zn16     1.0000 0.58583  0.56038  0.45701  Biso   1.000  Zn
  H25      1.0000 0.83560  0.33112  0.01168  Biso   1.000  H
  H26      1.0000 0.83249  0.11343  0.22516  Biso   1.000  H
  H27      1.0000 0.83921  0.32914  0.70978  Biso   1.000  H
  H28      1.0000 0.83871  0.11226  0.70449  Biso   1.000  H
  H29      1.0000 0.35568  0.11286  0.71157  Biso   1.000  H
  H30      1.0000 0.22719  0.72271  0.31569  Biso   1.000  H
  H31      1.0000 0.44488  0.72582  0.10221  Biso   1.000  H
  H32      1.0000 0.22917  0.71910  0.61759  Biso   1.000  H
  H33      1.0000 0.44605  0.71960  0.62288  Biso   1.000  H
  H34      1.0000 0.44545  0.20263  0.61580  Biso   1.000  H
  H35      1.0000 0.74815  0.20175  0.31569  Biso   1.000  H
  H36      1.0000 0.75127  0.41943  0.10221  Biso   1.000  H
  H37      1.0000 0.74454  0.20373  0.61759  Biso   1.000  H
  H38      1.0000 0.74505  0.42060  0.62288  Biso   1.000  H
  H39      1.0000 0.22807  0.42001  0.61580  Biso   1.000  H
  H40      1.0000 0.35657  0.81015  0.01168  Biso   1.000  H
  H41      1.0000 0.13887  0.80705  0.22516  Biso   1.000  H
  H42      1.0000 0.35459  0.81376  0.70978  Biso   1.000  H
  H43      1.0000 0.13771  0.81326  0.70449  Biso   1.000  H
  H44      1.0000 0.13831  0.33023  0.71157  Biso   1.000  H
  H45      1.0000 0.83690  0.81145  0.01098  Biso   1.000  H
  H46      1.0000 0.83419  0.80874  0.22906  Biso   1.000  H
  H47      1.0000 0.74686  0.72141  0.31639  Biso   1.000  H
  H48      1.0000 0.74957  0.72412  0.09831  Biso   1.000  H
  C49      1.0000 0.90346  0.15625  0.05031  Biso   1.000  C
  C50      1.0000 0.84477  0.21313  0.11059  Biso   1.000  C
  C51      1.0000 0.81873  0.30467  0.07386  Biso   1.000  C
  C52      1.0000 0.81692  0.17550  0.19961  Biso   1.000  C
  C53      1.0000 0.90387  0.15507  0.77425  Biso   1.000  C
  C54      1.0000 0.84809  0.21066  0.71746  Biso   1.000  C
  C55      1.0000 0.82035  0.30349  0.69231  Biso   1.000  C
  C56      1.0000 0.81995  0.17413  0.68892  Biso   1.000  C
  C57      1.0000 0.32944  0.17483  0.69211  Biso   1.000  C
  C58      1.0000 0.40206  0.65485  0.27706  Biso   1.000  C
  C59      1.0000 0.34518  0.71353  0.21678  Biso   1.000  C
  C60      1.0000 0.25364  0.73958  0.25351  Biso   1.000  C
  C61      1.0000 0.38281  0.74138  0.12776  Biso   1.000  C
  C62      1.0000 0.40324  0.65444  0.55312  Biso   1.000  C
  C63      1.0000 0.34765  0.71022  0.60991  Biso   1.000  C
  C64      1.0000 0.25482  0.73796  0.63506  Biso   1.000  C
  C65      1.0000 0.38418  0.73836  0.63845  Biso   1.000  C
  C66      1.0000 0.38347  0.22887  0.63526  Biso   1.000  C
  C67      1.0000 0.68030  0.37661  0.27706  Biso   1.000  C
  C68      1.0000 0.73899  0.31973  0.21678  Biso   1.000  C
  C69      1.0000 0.76502  0.22820  0.25351  Biso   1.000  C
  C70      1.0000 0.76684  0.35736  0.12776  Biso   1.000  C
  C71      1.0000 0.67989  0.37779  0.55312  Biso   1.000  C
  C72      1.0000 0.73567  0.32220  0.60991  Biso   1.000  C
  C73      1.0000 0.76340  0.22937  0.63506  Biso   1.000  C
  C74      1.0000 0.76381  0.35873  0.63845  Biso   1.000  C
  C75      1.0000 0.25432  0.35803  0.63526  Biso   1.000  C
  C76      1.0000 0.18170  0.87801  0.05031  Biso   1.000  C
  C77      1.0000 0.23858  0.81933  0.11059  Biso   1.000  C
  C78      1.0000 0.33012  0.79328  0.07386  Biso   1.000  C
  C79      1.0000 0.20095  0.79148  0.19961  Biso   1.000  C
  C80      1.0000 0.18051  0.87843  0.77425  Biso   1.000  C
  C81      1.0000 0.23611  0.82264  0.71746  Biso   1.000  C
  C82      1.0000 0.32894  0.79490  0.69231  Biso   1.000  C
  C83      1.0000 0.19958  0.79450  0.68892  Biso   1.000  C
  C84      1.0000 0.20028  0.30399  0.69211  Biso   1.000  C
  C85      1.0000 0.90176  0.87631  0.05689  Biso   1.000  C
  C86      1.0000 0.84577  0.82033  0.10979  Biso   1.000  C
  C87      1.0000 0.81923  0.79378  0.07286  Biso   1.000  C
  C88      1.0000 0.81683  0.79138  0.20161  Biso   1.000  C
  C89      1.0000 0.17762  0.15217  0.77944  Biso   1.000  C
  C90      1.0000 0.23770  0.21226  0.71756  Biso   1.000  C
  C91      1.0000 0.68200  0.65655  0.27048  Biso   1.000  C
  C92      1.0000 0.73799  0.71254  0.21758  Biso   1.000  C
  C93      1.0000 0.76453  0.73908  0.25451  Biso   1.000  C
  C94      1.0000 0.76693  0.74148  0.12576  Biso   1.000  C
  C95      1.0000 0.40614  0.38069  0.54793  Biso   1.000  C
  C96      1.0000 0.34606  0.32061  0.60981  Biso   1.000  C
  O27      1.0000 0.92351  0.07072  0.09372  Biso   1.000  O
  O28      1.0000 0.92591  0.19667  0.96777  Biso   1.000  O
  O29      1.0000 0.92323  0.06964  0.79950  Biso   1.000  O
  O30      1.0000 0.92543  0.19519  0.79671  Biso   1.000  O
  O31      1.0000 0.21993  0.06934  0.79900  Biso   1.000  O
  O32      1.0000 0.48759  0.63479  0.23365  Biso   1.000  O
  O33      1.0000 0.36164  0.63239  0.35960  Biso   1.000  O
  O34      1.0000 0.48867  0.63508  0.52787  Biso   1.000  O
  O35      1.0000 0.36313  0.63288  0.53067  Biso   1.000  O
  O36      1.0000 0.48897  0.33838  0.52837  Biso   1.000  O
  O37      1.0000 0.66024  0.46214  0.23365  Biso   1.000  O
  O38      1.0000 0.65784  0.33619  0.35960  Biso   1.000  O
  O39      1.0000 0.66053  0.46322  0.52787  Biso   1.000  O
  O40      1.0000 0.65833  0.33768  0.53067  Biso   1.000  O
  O41      1.0000 0.36383  0.46352  0.52837  Biso   1.000  O
  O42      1.0000 0.09617  0.89807  0.09372  Biso   1.000  O
  O43      1.0000 0.22212  0.90047  0.96777  Biso   1.000  O
  O44      1.0000 0.09509  0.89779  0.79950  Biso   1.000  O
  O45      1.0000 0.22063  0.89998  0.79671  Biso   1.000  O
  O46      1.0000 0.09478  0.19449  0.79900  Biso   1.000  O
  O47      1.0000 0.04129  0.01584  0.91437  Biso   1.000  O
  O48      1.0000 0.92491  0.89947  0.09272  Biso   1.000  O
  O49      1.0000 0.92332  0.89788  0.97246  Biso   1.000  O
  O50      1.0000 0.54247  0.51702  0.41300  Biso   1.000  O
  O51      1.0000 0.65885  0.63340  0.23465  Biso   1.000  O
