data_image0
_cell_length_a       18.228
_cell_length_b       18.228
_cell_length_c       18.228
_cell_angle_alpha    60
_cell_angle_beta     60
_cell_angle_gamma    60

_symmetry_space_group_name_H-M    "P 1"
_symmetry_int_tables_number       1

loop_
  _symmetry_equiv_pos_as_xyz
  'x, y, z'

loop_
  _atom_site_label
  _atom_site_occupancy
  _atom_site_fract_x
  _atom_site_fract_y
  _atom_site_fract_z
  _atom_site_thermal_displace_type
  _atom_site_B_iso_or_equiv
  _atom_site_type_symbol
  C1       1.0000 0.29358  0.29359  0.11924  Biso   1.000  C
  C2       1.0000 0.29358  0.29359  0.29359  Biso   1.000  C
  C3       1.0000 0.11923  0.29359  0.29359  Biso   1.000  C
  C4       1.0000 0.29358  0.11924  0.29359  Biso   1.000  C
  C5       1.0000 0.70642  0.70641  0.88076  Biso   1.000  C
  C6       1.0000 0.70642  0.70641  0.70641  Biso   1.000  C
  C7       1.0000 0.70642  0.88076  0.70641  Biso   1.000  C
  C8       1.0000 0.88077  0.70641  0.70641  Biso   1.000  C
  C9       1.0000 0.45570  0.45570  0.93670  Biso   1.000  C
  C10      1.0000 0.45570  0.45570  0.15190  Biso   1.000  C
  C11      1.0000 0.93670  0.15190  0.45570  Biso   1.000  C
  C12      1.0000 0.15190  0.93670  0.45570  Biso   1.000  C
  C13      1.0000 0.45570  0.93670  0.15190  Biso   1.000  C
  C14      1.0000 0.45570  0.15190  0.93670  Biso   1.000  C
  C15      1.0000 0.93670  0.45570  0.45570  Biso   1.000  C
  C16      1.0000 0.15190  0.45570  0.45570  Biso   1.000  C
  C17      1.0000 0.45570  0.15190  0.45570  Biso   1.000  C
  C18      1.0000 0.45570  0.93670  0.45570  Biso   1.000  C
  C19      1.0000 0.93670  0.45570  0.15190  Biso   1.000  C
  C20      1.0000 0.15190  0.45570  0.93670  Biso   1.000  C
  C21      1.0000 0.54430  0.54430  0.06330  Biso   1.000  C
  C22      1.0000 0.54430  0.54430  0.84810  Biso   1.000  C
  C23      1.0000 0.84810  0.06330  0.54430  Biso   1.000  C
  C24      1.0000 0.06330  0.84810  0.54430  Biso   1.000  C
  C25      1.0000 0.06330  0.54430  0.84810  Biso   1.000  C
  C26      1.0000 0.84810  0.54430  0.06330  Biso   1.000  C
  C27      1.0000 0.54430  0.06330  0.54430  Biso   1.000  C
  C28      1.0000 0.54430  0.84810  0.54430  Biso   1.000  C
  C29      1.0000 0.84810  0.54430  0.54430  Biso   1.000  C
  C30      1.0000 0.06330  0.54430  0.54430  Biso   1.000  C
  C31      1.0000 0.54430  0.06330  0.84810  Biso   1.000  C
  C32      1.0000 0.54430  0.84810  0.06330  Biso   1.000  C
  C33      1.0000 0.47340  0.47340  0.96356  Biso   1.000  C
  C34      1.0000 0.47340  0.47340  0.08964  Biso   1.000  C
  C35      1.0000 0.96356  0.08964  0.47340  Biso   1.000  C
  C36      1.0000 0.08964  0.96356  0.47340  Biso   1.000  C
  C37      1.0000 0.47340  0.96356  0.08964  Biso   1.000  C
  C38      1.0000 0.47340  0.08964  0.96356  Biso   1.000  C
  C39      1.0000 0.96356  0.47340  0.47340  Biso   1.000  C
  C40      1.0000 0.08964  0.47340  0.47340  Biso   1.000  C
  C41      1.0000 0.47340  0.08964  0.47340  Biso   1.000  C
  C42      1.0000 0.47340  0.96356  0.47340  Biso   1.000  C
  C43      1.0000 0.96356  0.47340  0.08964  Biso   1.000  C
  C44      1.0000 0.08964  0.47340  0.96356  Biso   1.000  C
  C45      1.0000 0.52660  0.52660  0.03644  Biso   1.000  C
  C46      1.0000 0.52660  0.52660  0.91036  Biso   1.000  C
  C47      1.0000 0.91036  0.03644  0.52660  Biso   1.000  C
  C48      1.0000 0.03644  0.91036  0.52660  Biso   1.000  C
  C49      1.0000 0.03644  0.52660  0.91036  Biso   1.000  C
  C50      1.0000 0.91036  0.52660  0.03644  Biso   1.000  C
  C51      1.0000 0.52660  0.03644  0.52660  Biso   1.000  C
  C52      1.0000 0.52660  0.91036  0.52660  Biso   1.000  C
  C53      1.0000 0.91036  0.52660  0.52660  Biso   1.000  C
  C54      1.0000 0.03644  0.52660  0.52660  Biso   1.000  C
  C55      1.0000 0.52660  0.03644  0.91036  Biso   1.000  C
  C56      1.0000 0.52660  0.91036  0.03644  Biso   1.000  C
  C57      1.0000 0.38850  0.38850  0.11150  Biso   1.000  C
  C58      1.0000 0.44610  0.44610  0.05390  Biso   1.000  C
  C59      1.0000 0.11150  0.11150  0.38850  Biso   1.000  C
  C60      1.0000 0.05390  0.05390  0.44610  Biso   1.000  C
  C61      1.0000 0.38850  0.11150  0.11150  Biso   1.000  C
  C62      1.0000 0.44610  0.05390  0.05390  Biso   1.000  C
  C63      1.0000 0.11150  0.38850  0.38850  Biso   1.000  C
  C64      1.0000 0.05390  0.44610  0.44610  Biso   1.000  C
  C65      1.0000 0.38850  0.11150  0.38850  Biso   1.000  C
  C66      1.0000 0.44610  0.05390  0.44610  Biso   1.000  C
  C67      1.0000 0.11150  0.38850  0.11150  Biso   1.000  C
  C68      1.0000 0.05390  0.44610  0.05390  Biso   1.000  C
  C69      1.0000 0.61150  0.61150  0.88850  Biso   1.000  C
  C70      1.0000 0.55390  0.55390  0.94610  Biso   1.000  C
  C71      1.0000 0.88850  0.88850  0.61150  Biso   1.000  C
  C72      1.0000 0.94610  0.94610  0.55390  Biso   1.000  C
  C73      1.0000 0.88850  0.61150  0.88850  Biso   1.000  C
  C74      1.0000 0.94610  0.55390  0.94610  Biso   1.000  C
  C75      1.0000 0.61150  0.88850  0.61150  Biso   1.000  C
  C76      1.0000 0.55390  0.94610  0.55390  Biso   1.000  C
  C77      1.0000 0.88850  0.61150  0.61150  Biso   1.000  C
  C78      1.0000 0.94610  0.55390  0.55390  Biso   1.000  C
  C79      1.0000 0.61150  0.88850  0.88850  Biso   1.000  C
  C80      1.0000 0.55390  0.94610  0.94610  Biso   1.000  C
  C81      1.0000 0.25000  0.25000  0.25000  Biso   1.000  C
  C82      1.0000 0.75000  0.75000  0.75000  Biso   1.000  C
  C83      1.0000 0.36610  0.36610  0.07322  Biso   1.000  C
  C84      1.0000 0.36610  0.36610  0.19458  Biso   1.000  C
  C85      1.0000 0.07322  0.19458  0.36610  Biso   1.000  C
  C86      1.0000 0.19458  0.07322  0.36610  Biso   1.000  C
  C87      1.0000 0.36610  0.07322  0.19458  Biso   1.000  C
  C88      1.0000 0.36610  0.19458  0.07322  Biso   1.000  C
  C89      1.0000 0.07322  0.36610  0.36610  Biso   1.000  C
  C90      1.0000 0.19458  0.36610  0.36610  Biso   1.000  C
  C91      1.0000 0.36610  0.19458  0.36610  Biso   1.000  C
  C92      1.0000 0.36610  0.07322  0.36610  Biso   1.000  C
  C93      1.0000 0.07322  0.36610  0.19458  Biso   1.000  C
  C94      1.0000 0.19458  0.36610  0.07322  Biso   1.000  C
  C95      1.0000 0.63390  0.63390  0.92678  Biso   1.000  C
  C96      1.0000 0.63390  0.63390  0.80542  Biso   1.000  C
  C97      1.0000 0.80542  0.92678  0.63390  Biso   1.000  C
  C98      1.0000 0.92678  0.80542  0.63390  Biso   1.000  C
  C99      1.0000 0.92678  0.63390  0.80542  Biso   1.000  C
  C100     1.0000 0.80542  0.63390  0.92678  Biso   1.000  C
  C101     1.0000 0.63390  0.92678  0.63390  Biso   1.000  C
  C102     1.0000 0.63390  0.80542  0.63390  Biso   1.000  C
  C103     1.0000 0.80542  0.63390  0.63390  Biso   1.000  C
  C104     1.0000 0.92678  0.63390  0.63390  Biso   1.000  C
  C105     1.0000 0.63390  0.92678  0.80542  Biso   1.000  C
  C106     1.0000 0.63390  0.80542  0.92678  Biso   1.000  C
  O1       1.0000 0.68705  0.35000  0.47033  Biso   1.000  O
  O2       1.0000 0.50910  0.35000  0.64828  Biso   1.000  O
  O3       1.0000 0.50910  0.52795  0.47033  Biso   1.000  O
  O4       1.0000 0.50910  0.35000  0.47033  Biso   1.000  O
  O5       1.0000 0.09247  0.93897  0.88698  Biso   1.000  O
  O6       1.0000 0.92016  0.93897  0.05930  Biso   1.000  O
  O7       1.0000 0.09247  0.93897  0.05930  Biso   1.000  O
  O8       1.0000 0.09247  0.76666  0.05930  Biso   1.000  O
  O9       1.0000 0.94905  0.10243  0.70348  Biso   1.000  O
  O10      1.0000 0.73665  0.10243  0.91588  Biso   1.000  O
  O11      1.0000 0.25593  0.79555  0.22276  Biso   1.000  O
  O12      1.0000 0.25593  0.58315  0.22276  Biso   1.000  O
  O13      1.0000 0.25593  0.58315  0.91588  Biso   1.000  O
  O14      1.0000 0.25593  0.79555  0.70348  Biso   1.000  O
  O15      1.0000 0.94905  0.10243  0.22276  Biso   1.000  O
  O16      1.0000 0.73665  0.10243  0.22276  Biso   1.000  O
  O17      1.0000 0.73665  0.79555  0.22276  Biso   1.000  O
  O18      1.0000 0.94905  0.58315  0.22276  Biso   1.000  O
  O19      1.0000 0.25593  0.10243  0.91588  Biso   1.000  O
  O20      1.0000 0.25593  0.10243  0.70348  Biso   1.000  O
  O21      1.0000 0.83897  0.16935  0.67971  Biso   1.000  O
  O22      1.0000 0.88710  0.11903  0.73222  Biso   1.000  O
  O23      1.0000 0.71288  0.16935  0.80580  Biso   1.000  O
  O24      1.0000 0.76539  0.11903  0.85393  Biso   1.000  O
  O25      1.0000 0.32285  0.68547  0.28968  Biso   1.000  O
  O26      1.0000 0.27253  0.73360  0.23936  Biso   1.000  O
  O27      1.0000 0.32285  0.55938  0.28968  Biso   1.000  O
  O28      1.0000 0.27253  0.61189  0.23936  Biso   1.000  O
  O29      1.0000 0.32285  0.55938  0.80580  Biso   1.000  O
  O30      1.0000 0.27253  0.61189  0.85393  Biso   1.000  O
  O31      1.0000 0.32285  0.68547  0.67971  Biso   1.000  O
  O32      1.0000 0.27253  0.73360  0.73222  Biso   1.000  O
  O33      1.0000 0.83897  0.16935  0.28968  Biso   1.000  O
  O34      1.0000 0.88710  0.11903  0.23936  Biso   1.000  O
  O35      1.0000 0.71288  0.16935  0.28968  Biso   1.000  O
  O36      1.0000 0.76539  0.11903  0.23936  Biso   1.000  O
  O37      1.0000 0.71288  0.68547  0.28968  Biso   1.000  O
  O38      1.0000 0.76539  0.73360  0.23936  Biso   1.000  O
  O39      1.0000 0.83897  0.55938  0.28968  Biso   1.000  O
  O40      1.0000 0.88710  0.61189  0.23936  Biso   1.000  O
  O41      1.0000 0.32285  0.16935  0.80580  Biso   1.000  O
  O42      1.0000 0.27253  0.11903  0.85393  Biso   1.000  O
  O43      1.0000 0.32285  0.16935  0.67971  Biso   1.000  O
  O44      1.0000 0.27253  0.11903  0.73222  Biso   1.000  O
  O45      1.0000 0.68792  0.25735  0.65475  Biso   1.000  O
  O46      1.0000 0.75156  0.19371  0.71839  Biso   1.000  O
  O47      1.0000 0.90858  0.03670  0.87541  Biso   1.000  O
  O48      1.0000 0.85836  0.08691  0.82519  Biso   1.000  O
  O49      1.0000 0.41086  0.53442  0.37768  Biso   1.000  O
  O50      1.0000 0.34721  0.59806  0.31404  Biso   1.000  O
  O51      1.0000 0.19020  0.75508  0.15703  Biso   1.000  O
  O52      1.0000 0.24041  0.70486  0.20724  Biso   1.000  O
  O53      1.0000 0.41085  0.53442  0.65475  Biso   1.000  O
  O54      1.0000 0.34721  0.59807  0.71839  Biso   1.000  O
  O55      1.0000 0.19020  0.75508  0.87541  Biso   1.000  O
  O56      1.0000 0.24041  0.70486  0.82519  Biso   1.000  O
  O57      1.0000 0.68792  0.25735  0.37768  Biso   1.000  O
  O58      1.0000 0.75156  0.19371  0.31404  Biso   1.000  O
  O59      1.0000 0.90858  0.03670  0.15703  Biso   1.000  O
  O60      1.0000 0.85836  0.08691  0.20724  Biso   1.000  O
  O61      1.0000 0.68792  0.53442  0.37768  Biso   1.000  O
  O62      1.0000 0.75156  0.59806  0.31404  Biso   1.000  O
  O63      1.0000 0.90858  0.75508  0.15703  Biso   1.000  O
  O64      1.0000 0.85836  0.70486  0.20724  Biso   1.000  O
  O65      1.0000 0.41085  0.25735  0.65475  Biso   1.000  O
  O66      1.0000 0.34721  0.19371  0.71839  Biso   1.000  O
  O67      1.0000 0.19020  0.03670  0.87541  Biso   1.000  O
  O68      1.0000 0.24041  0.08691  0.82519  Biso   1.000  O
  O69      1.0000 0.04939  0.89589  0.01622  Biso   1.000  O
  O70      1.0000 0.55778  0.39309  0.51342  Biso   1.000  O
  O71      1.0000 0.72651  0.27923  0.57241  Biso   1.000  O
  O72      1.0000 0.99340  0.01194  0.84011  Biso   1.000  O
  O73      1.0000 0.60559  0.27923  0.69333  Biso   1.000  O
  O74      1.0000 0.87328  0.01194  0.96023  Biso   1.000  O
  O75      1.0000 0.43273  0.57301  0.39956  Biso   1.000  O
  O76      1.0000 0.16544  0.83990  0.13226  Biso   1.000  O
  O77      1.0000 0.43273  0.45209  0.39956  Biso   1.000  O
  O78      1.0000 0.16544  0.71978  0.13226  Biso   1.000  O
  O79      1.0000 0.43273  0.45209  0.69333  Biso   1.000  O
  O80      1.0000 0.16544  0.71978  0.96023  Biso   1.000  O
  O81      1.0000 0.43273  0.57301  0.57241  Biso   1.000  O
  O82      1.0000 0.16544  0.83990  0.84011  Biso   1.000  O
  O83      1.0000 0.72651  0.27923  0.39956  Biso   1.000  O
  O84      1.0000 0.99340  0.01194  0.13226  Biso   1.000  O
  O85      1.0000 0.60559  0.27923  0.39956  Biso   1.000  O
  O86      1.0000 0.87328  0.01194  0.13226  Biso   1.000  O
  O87      1.0000 0.60559  0.57301  0.39956  Biso   1.000  O
  O88      1.0000 0.87328  0.83990  0.13226  Biso   1.000  O
  O89      1.0000 0.72651  0.45209  0.39956  Biso   1.000  O
  O90      1.0000 0.99340  0.71978  0.13226  Biso   1.000  O
  O91      1.0000 0.43273  0.27923  0.69333  Biso   1.000  O
  O92      1.0000 0.16544  0.01194  0.96023  Biso   1.000  O
  O93      1.0000 0.43273  0.27923  0.57241  Biso   1.000  O
