data_image0
_cell_length_a       18.2205
_cell_length_b       18.2205
_cell_length_c       18.2205
_cell_angle_alpha    60
_cell_angle_beta     60
_cell_angle_gamma    60

_symmetry_space_group_name_H-M    "P 1"
_symmetry_int_tables_number       1

loop_
  _symmetry_equiv_pos_as_xyz
  'x, y, z'

loop_
  _atom_site_label
  _atom_site_occupancy
  _atom_site_fract_x
  _atom_site_fract_y
  _atom_site_fract_z
  _atom_site_thermal_displace_type
  _atom_site_B_iso_or_equiv
  _atom_site_type_symbol
  C1       1.0000 0.29361  0.29361  0.11917  Biso   1.000  C
  C2       1.0000 0.29361  0.29361  0.29361  Biso   1.000  C
  C3       1.0000 0.11917  0.29361  0.29361  Biso   1.000  C
  C4       1.0000 0.29361  0.11917  0.29361  Biso   1.000  C
  C5       1.0000 0.70639  0.70639  0.88083  Biso   1.000  C
  C6       1.0000 0.70639  0.70639  0.70639  Biso   1.000  C
  C7       1.0000 0.70639  0.88083  0.70639  Biso   1.000  C
  C8       1.0000 0.88083  0.70639  0.70639  Biso   1.000  C
  C9       1.0000 0.45580  0.45580  0.93700  Biso   1.000  C
  C10      1.0000 0.45580  0.45580  0.15140  Biso   1.000  C
  C11      1.0000 0.93700  0.15140  0.45580  Biso   1.000  C
  C12      1.0000 0.15140  0.93700  0.45580  Biso   1.000  C
  C13      1.0000 0.45580  0.93700  0.15140  Biso   1.000  C
  C14      1.0000 0.45580  0.15140  0.93700  Biso   1.000  C
  C15      1.0000 0.93700  0.45580  0.45580  Biso   1.000  C
  C16      1.0000 0.15140  0.45580  0.45580  Biso   1.000  C
  C17      1.0000 0.45580  0.15140  0.45580  Biso   1.000  C
  C18      1.0000 0.45580  0.93700  0.45580  Biso   1.000  C
  C19      1.0000 0.93700  0.45580  0.15140  Biso   1.000  C
  C20      1.0000 0.15140  0.45580  0.93700  Biso   1.000  C
  C21      1.0000 0.54420  0.54420  0.06300  Biso   1.000  C
  C22      1.0000 0.54420  0.54420  0.84860  Biso   1.000  C
  C23      1.0000 0.84860  0.06300  0.54420  Biso   1.000  C
  C24      1.0000 0.06300  0.84860  0.54420  Biso   1.000  C
  C25      1.0000 0.06300  0.54420  0.84860  Biso   1.000  C
  C26      1.0000 0.84860  0.54420  0.06300  Biso   1.000  C
  C27      1.0000 0.54420  0.06300  0.54420  Biso   1.000  C
  C28      1.0000 0.54420  0.84860  0.54420  Biso   1.000  C
  C29      1.0000 0.84860  0.54420  0.54420  Biso   1.000  C
  C30      1.0000 0.06300  0.54420  0.54420  Biso   1.000  C
  C31      1.0000 0.54420  0.06300  0.84860  Biso   1.000  C
  C32      1.0000 0.54420  0.84860  0.06300  Biso   1.000  C
  C33      1.0000 0.47350  0.47350  0.96390  Biso   1.000  C
  C34      1.0000 0.47350  0.47350  0.08910  Biso   1.000  C
  C35      1.0000 0.96390  0.08910  0.47350  Biso   1.000  C
  C36      1.0000 0.08910  0.96390  0.47350  Biso   1.000  C
  C37      1.0000 0.47350  0.96390  0.08910  Biso   1.000  C
  C38      1.0000 0.47350  0.08910  0.96390  Biso   1.000  C
  C39      1.0000 0.96390  0.47350  0.47350  Biso   1.000  C
  C40      1.0000 0.08910  0.47350  0.47350  Biso   1.000  C
  C41      1.0000 0.47350  0.08910  0.47350  Biso   1.000  C
  C42      1.0000 0.47350  0.96390  0.47350  Biso   1.000  C
  C43      1.0000 0.96390  0.47350  0.08910  Biso   1.000  C
  C44      1.0000 0.08910  0.47350  0.96390  Biso   1.000  C
  C45      1.0000 0.52650  0.52650  0.03610  Biso   1.000  C
  C46      1.0000 0.52650  0.52650  0.91090  Biso   1.000  C
  C47      1.0000 0.91090  0.03610  0.52650  Biso   1.000  C
  C48      1.0000 0.03610  0.91090  0.52650  Biso   1.000  C
  C49      1.0000 0.03610  0.52650  0.91090  Biso   1.000  C
  C50      1.0000 0.91090  0.52650  0.03610  Biso   1.000  C
  C51      1.0000 0.52650  0.03610  0.52650  Biso   1.000  C
  C52      1.0000 0.52650  0.91090  0.52650  Biso   1.000  C
  C53      1.0000 0.91090  0.52650  0.52650  Biso   1.000  C
  C54      1.0000 0.03610  0.52650  0.52650  Biso   1.000  C
  C55      1.0000 0.52650  0.03610  0.91090  Biso   1.000  C
  C56      1.0000 0.52650  0.91090  0.03610  Biso   1.000  C
  C57      1.0000 0.38850  0.38850  0.11150  Biso   1.000  C
  C58      1.0000 0.44660  0.44660  0.05340  Biso   1.000  C
  C59      1.0000 0.11150  0.11150  0.38850  Biso   1.000  C
  C60      1.0000 0.05340  0.05340  0.44660  Biso   1.000  C
  C61      1.0000 0.38850  0.11150  0.11150  Biso   1.000  C
  C62      1.0000 0.44660  0.05340  0.05340  Biso   1.000  C
  C63      1.0000 0.11150  0.38850  0.38850  Biso   1.000  C
  C64      1.0000 0.05340  0.44660  0.44660  Biso   1.000  C
  C65      1.0000 0.38850  0.11150  0.38850  Biso   1.000  C
  C66      1.0000 0.44660  0.05340  0.44660  Biso   1.000  C
  C67      1.0000 0.11150  0.38850  0.11150  Biso   1.000  C
  C68      1.0000 0.05340  0.44660  0.05340  Biso   1.000  C
  C69      1.0000 0.61150  0.61150  0.88850  Biso   1.000  C
  C70      1.0000 0.55340  0.55340  0.94660  Biso   1.000  C
  C71      1.0000 0.88850  0.88850  0.61150  Biso   1.000  C
  C72      1.0000 0.94660  0.94660  0.55340  Biso   1.000  C
  C73      1.0000 0.88850  0.61150  0.88850  Biso   1.000  C
  C74      1.0000 0.94660  0.55340  0.94660  Biso   1.000  C
  C75      1.0000 0.61150  0.88850  0.61150  Biso   1.000  C
  C76      1.0000 0.55340  0.94660  0.55340  Biso   1.000  C
  C77      1.0000 0.88850  0.61150  0.61150  Biso   1.000  C
  C78      1.0000 0.94660  0.55340  0.55340  Biso   1.000  C
  C79      1.0000 0.61150  0.88850  0.88850  Biso   1.000  C
  C80      1.0000 0.55340  0.94660  0.94660  Biso   1.000  C
  C81      1.0000 0.25000  0.25000  0.25000  Biso   1.000  C
  C82      1.0000 0.75000  0.75000  0.75000  Biso   1.000  C
  C83      1.0000 0.36609  0.36609  0.07351  Biso   1.000  C
  C84      1.0000 0.36609  0.36609  0.19431  Biso   1.000  C
  C85      1.0000 0.07351  0.19431  0.36609  Biso   1.000  C
  C86      1.0000 0.19431  0.07351  0.36609  Biso   1.000  C
  C87      1.0000 0.36609  0.07351  0.19431  Biso   1.000  C
  C88      1.0000 0.36609  0.19431  0.07351  Biso   1.000  C
  C89      1.0000 0.07351  0.36609  0.36609  Biso   1.000  C
  C90      1.0000 0.19431  0.36609  0.36609  Biso   1.000  C
  C91      1.0000 0.36609  0.19431  0.36609  Biso   1.000  C
  C92      1.0000 0.36609  0.07351  0.36609  Biso   1.000  C
  C93      1.0000 0.07351  0.36609  0.19431  Biso   1.000  C
  C94      1.0000 0.19431  0.36609  0.07351  Biso   1.000  C
  C95      1.0000 0.63391  0.63391  0.92649  Biso   1.000  C
  C96      1.0000 0.63391  0.63391  0.80569  Biso   1.000  C
  C97      1.0000 0.80569  0.92649  0.63391  Biso   1.000  C
  C98      1.0000 0.92649  0.80569  0.63391  Biso   1.000  C
  C99      1.0000 0.92649  0.63391  0.80569  Biso   1.000  C
  C100     1.0000 0.80569  0.63391  0.92649  Biso   1.000  C
  C101     1.0000 0.63391  0.92649  0.63391  Biso   1.000  C
  C102     1.0000 0.63391  0.80569  0.63391  Biso   1.000  C
  C103     1.0000 0.80569  0.63391  0.63391  Biso   1.000  C
  C104     1.0000 0.92649  0.63391  0.63391  Biso   1.000  C
  C105     1.0000 0.63391  0.92649  0.80569  Biso   1.000  C
  C106     1.0000 0.63391  0.80569  0.92649  Biso   1.000  C
  O1       1.0000 0.47866  0.34630  0.67218  Biso   1.000  O
  O2       1.0000 0.65318  0.34630  0.49765  Biso   1.000  O
  O3       1.0000 0.47866  0.34630  0.49765  Biso   1.000  O
  O4       1.0000 0.47866  0.52083  0.49765  Biso   1.000  O
  O5       1.0000 0.06968  0.93231  0.90913  Biso   1.000  O
  O6       1.0000 0.89515  0.93231  0.08366  Biso   1.000  O
  O7       1.0000 0.06968  0.75778  0.08366  Biso   1.000  O
  O8       1.0000 0.06968  0.93231  0.08366  Biso   1.000  O
  O9       1.0000 0.62234  0.18372  0.85366  Biso   1.000  O
  O10      1.0000 0.83717  0.18372  0.63883  Biso   1.000  O
  O11      1.0000 0.31858  0.48748  0.33507  Biso   1.000  O
  O12      1.0000 0.31858  0.70231  0.33507  Biso   1.000  O
  O13      1.0000 0.31858  0.70231  0.63883  Biso   1.000  O
  O14      1.0000 0.31858  0.48748  0.85366  Biso   1.000  O
  O15      1.0000 0.62234  0.18372  0.33507  Biso   1.000  O
  O16      1.0000 0.83717  0.18372  0.33507  Biso   1.000  O
  O17      1.0000 0.83717  0.48748  0.33507  Biso   1.000  O
  O18      1.0000 0.62234  0.70231  0.33507  Biso   1.000  O
  O19      1.0000 0.31858  0.18372  0.63883  Biso   1.000  O
  O20      1.0000 0.31858  0.18372  0.85366  Biso   1.000  O
  O21      1.0000 0.92600  0.09489  0.72765  Biso   1.000  O
  O22      1.0000 0.71116  0.09489  0.94248  Biso   1.000  O
  O23      1.0000 0.22976  0.57630  0.24624  Biso   1.000  O
  O24      1.0000 0.22976  0.79113  0.24624  Biso   1.000  O
  O25      1.0000 0.22976  0.09489  0.94248  Biso   1.000  O
  O26      1.0000 0.22976  0.09489  0.72765  Biso   1.000  O
  O27      1.0000 0.92600  0.57630  0.24624  Biso   1.000  O
  O28      1.0000 0.71116  0.79113  0.24624  Biso   1.000  O
  O29      1.0000 0.71116  0.09489  0.24624  Biso   1.000  O
  O30      1.0000 0.92600  0.09489  0.24624  Biso   1.000  O
  O31      1.0000 0.22976  0.57630  0.94248  Biso   1.000  O
  O32      1.0000 0.22976  0.79113  0.72765  Biso   1.000  O
  O33      1.0000 0.68449  0.16595  0.82704  Biso   1.000  O
  O34      1.0000 0.81055  0.16595  0.70098  Biso   1.000  O
  O35      1.0000 0.30081  0.54963  0.31730  Biso   1.000  O
  O36      1.0000 0.30081  0.67569  0.31730  Biso   1.000  O
  O37      1.0000 0.30081  0.67569  0.70098  Biso   1.000  O
  O38      1.0000 0.30081  0.54963  0.82704  Biso   1.000  O
  O39      1.0000 0.68449  0.16595  0.31730  Biso   1.000  O
  O40      1.0000 0.81055  0.16595  0.31730  Biso   1.000  O
  O41      1.0000 0.81055  0.54963  0.31730  Biso   1.000  O
  O42      1.0000 0.68449  0.67569  0.31730  Biso   1.000  O
  O43      1.0000 0.30081  0.16595  0.70098  Biso   1.000  O
  O44      1.0000 0.30081  0.16595  0.82704  Biso   1.000  O
  O45      1.0000 0.86384  0.11266  0.75427  Biso   1.000  O
  O46      1.0000 0.73779  0.11266  0.88033  Biso   1.000  O
  O47      1.0000 0.24752  0.60293  0.26401  Biso   1.000  O
  O48      1.0000 0.24752  0.72898  0.26401  Biso   1.000  O
  O49      1.0000 0.24752  0.11266  0.88033  Biso   1.000  O
  O50      1.0000 0.24752  0.11266  0.75427  Biso   1.000  O
  O51      1.0000 0.86384  0.60293  0.26401  Biso   1.000  O
  O52      1.0000 0.73779  0.72898  0.26401  Biso   1.000  O
  O53      1.0000 0.73779  0.11266  0.26401  Biso   1.000  O
  O54      1.0000 0.86384  0.11266  0.26401  Biso   1.000  O
  O55      1.0000 0.24752  0.60293  0.88033  Biso   1.000  O
  O56      1.0000 0.24752  0.72898  0.75427  Biso   1.000  O
  O57      1.0000 0.66121  0.25101  0.68021  Biso   1.000  O
  O58      1.0000 0.71903  0.19319  0.73802  Biso   1.000  O
  O59      1.0000 0.38336  0.52886  0.40235  Biso   1.000  O
  O60      1.0000 0.32554  0.58667  0.34454  Biso   1.000  O
  O61      1.0000 0.38336  0.52886  0.68021  Biso   1.000  O
  O62      1.0000 0.32554  0.58667  0.73802  Biso   1.000  O
  O63      1.0000 0.66121  0.25101  0.40235  Biso   1.000  O
  O64      1.0000 0.71903  0.19319  0.34454  Biso   1.000  O
  O65      1.0000 0.66121  0.52886  0.40235  Biso   1.000  O
  O66      1.0000 0.71903  0.58667  0.34454  Biso   1.000  O
  O67      1.0000 0.38336  0.25101  0.68021  Biso   1.000  O
  O68      1.0000 0.32554  0.19319  0.73802  Biso   1.000  O
  O69      1.0000 0.88712  0.02761  0.90110  Biso   1.000  O
  O70      1.0000 0.82931  0.08542  0.84329  Biso   1.000  O
  O71      1.0000 0.16498  0.74975  0.17896  Biso   1.000  O
  O72      1.0000 0.22279  0.69194  0.23677  Biso   1.000  O
  O73      1.0000 0.16498  0.02761  0.90110  Biso   1.000  O
  O74      1.0000 0.22279  0.08542  0.84329  Biso   1.000  O
  O75      1.0000 0.88712  0.74975  0.17896  Biso   1.000  O
  O76      1.0000 0.82931  0.69194  0.23677  Biso   1.000  O
  O77      1.0000 0.88712  0.02761  0.17896  Biso   1.000  O
  O78      1.0000 0.82931  0.08542  0.23677  Biso   1.000  O
  O79      1.0000 0.16498  0.74975  0.90110  Biso   1.000  O
  O80      1.0000 0.22279  0.69194  0.84329  Biso   1.000  O
  O81      1.0000 0.52229  0.38993  0.54128  Biso   1.000  O
  O82      1.0000 0.02605  0.88868  0.04003  Biso   1.000  O
  O83      1.0000 0.57763  0.27347  0.71886  Biso   1.000  O
  O84      1.0000 0.69986  0.27347  0.59663  Biso   1.000  O
  O85      1.0000 0.40582  0.44528  0.42482  Biso   1.000  O
  O86      1.0000 0.40582  0.56751  0.42482  Biso   1.000  O
  O87      1.0000 0.40582  0.56751  0.59663  Biso   1.000  O
  O88      1.0000 0.40582  0.44528  0.71886  Biso   1.000  O
  O89      1.0000 0.57763  0.27347  0.42482  Biso   1.000  O
  O90      1.0000 0.69986  0.27347  0.42482  Biso   1.000  O
  O91      1.0000 0.69986  0.44528  0.42482  Biso   1.000  O
  O92      1.0000 0.57763  0.56751  0.42482  Biso   1.000  O
  O93      1.0000 0.40582  0.27347  0.59663  Biso   1.000  O
  O94      1.0000 0.40582  0.27347  0.71886  Biso   1.000  O
  O95      1.0000 0.97070  0.00514  0.86245  Biso   1.000  O
  O96      1.0000 0.84847  0.00514  0.98468  Biso   1.000  O
  O97      1.0000 0.14251  0.71110  0.15649  Biso   1.000  O
  O98      1.0000 0.14251  0.83333  0.15649  Biso   1.000  O
  O99      1.0000 0.14251  0.00514  0.98468  Biso   1.000  O
  O100     1.0000 0.14251  0.00514  0.86245  Biso   1.000  O
  O101     1.0000 0.97070  0.71110  0.15649  Biso   1.000  O
  O102     1.0000 0.84847  0.83333  0.15649  Biso   1.000  O
  O103     1.0000 0.84847  0.00514  0.15649  Biso   1.000  O
  O104     1.0000 0.97070  0.00514  0.15649  Biso   1.000  O
  O105     1.0000 0.14251  0.71110  0.98468  Biso   1.000  O
