data_image0
_cell_length_a       18.2455
_cell_length_b       18.2455
_cell_length_c       18.2455
_cell_angle_alpha    60
_cell_angle_beta     60
_cell_angle_gamma    60

_symmetry_space_group_name_H-M    "P 1"
_symmetry_int_tables_number       1

loop_
  _symmetry_equiv_pos_as_xyz
  'x, y, z'

loop_
  _atom_site_label
  _atom_site_occupancy
  _atom_site_fract_x
  _atom_site_fract_y
  _atom_site_fract_z
  _atom_site_thermal_displace_type
  _atom_site_B_iso_or_equiv
  _atom_site_type_symbol
  Zn1      1.0000 0.29354  0.29354  0.11938  Biso   1.000  Zn
  Zn2      1.0000 0.29354  0.29354  0.29354  Biso   1.000  Zn
  Zn3      1.0000 0.11938  0.29354  0.29354  Biso   1.000  Zn
  Zn4      1.0000 0.29354  0.11938  0.29354  Biso   1.000  Zn
  Zn5      1.0000 0.70646  0.70646  0.88062  Biso   1.000  Zn
  Zn6      1.0000 0.70646  0.70646  0.70646  Biso   1.000  Zn
  Zn7      1.0000 0.70646  0.88062  0.70646  Biso   1.000  Zn
  Zn8      1.0000 0.88062  0.70646  0.70646  Biso   1.000  Zn
  H1       1.0000 0.45580  0.45580  0.93620  Biso   1.000  H
  H2       1.0000 0.45580  0.45580  0.15220  Biso   1.000  H
  H3       1.0000 0.93620  0.15220  0.45580  Biso   1.000  H
  H4       1.0000 0.15220  0.93620  0.45580  Biso   1.000  H
  H5       1.0000 0.45580  0.93620  0.15220  Biso   1.000  H
  H6       1.0000 0.45580  0.15220  0.93620  Biso   1.000  H
  H7       1.0000 0.93620  0.45580  0.45580  Biso   1.000  H
  H8       1.0000 0.15220  0.45580  0.45580  Biso   1.000  H
  H9       1.0000 0.45580  0.15220  0.45580  Biso   1.000  H
  H10      1.0000 0.45580  0.93620  0.45580  Biso   1.000  H
  H11      1.0000 0.93620  0.45580  0.15220  Biso   1.000  H
  H12      1.0000 0.15220  0.45580  0.93620  Biso   1.000  H
  H13      1.0000 0.54420  0.54420  0.06380  Biso   1.000  H
  H14      1.0000 0.54420  0.54420  0.84780  Biso   1.000  H
  H15      1.0000 0.84780  0.06380  0.54420  Biso   1.000  H
  H16      1.0000 0.06380  0.84780  0.54420  Biso   1.000  H
  H17      1.0000 0.06380  0.54420  0.84780  Biso   1.000  H
  H18      1.0000 0.84780  0.54420  0.06380  Biso   1.000  H
  H19      1.0000 0.54420  0.06380  0.54420  Biso   1.000  H
  H20      1.0000 0.54420  0.84780  0.54420  Biso   1.000  H
  H21      1.0000 0.84780  0.54420  0.54420  Biso   1.000  H
  H22      1.0000 0.06380  0.54420  0.54420  Biso   1.000  H
  H23      1.0000 0.54420  0.06380  0.84780  Biso   1.000  H
  H24      1.0000 0.54420  0.84780  0.06380  Biso   1.000  H
  C1       1.0000 0.47345  0.47345  0.96303  Biso   1.000  C
  C2       1.0000 0.47345  0.47345  0.09007  Biso   1.000  C
  C3       1.0000 0.96303  0.09007  0.47345  Biso   1.000  C
  C4       1.0000 0.09007  0.96303  0.47345  Biso   1.000  C
  C5       1.0000 0.47345  0.96303  0.09007  Biso   1.000  C
  C6       1.0000 0.47345  0.09007  0.96303  Biso   1.000  C
  C7       1.0000 0.96303  0.47345  0.47345  Biso   1.000  C
  C8       1.0000 0.09007  0.47345  0.47345  Biso   1.000  C
  C9       1.0000 0.47345  0.09007  0.47345  Biso   1.000  C
  C10      1.0000 0.47345  0.96303  0.47345  Biso   1.000  C
  C11      1.0000 0.96303  0.47345  0.09007  Biso   1.000  C
  C12      1.0000 0.09007  0.47345  0.96303  Biso   1.000  C
  C13      1.0000 0.52655  0.52655  0.03697  Biso   1.000  C
  C14      1.0000 0.52655  0.52655  0.90993  Biso   1.000  C
  C15      1.0000 0.90993  0.03697  0.52655  Biso   1.000  C
  C16      1.0000 0.03697  0.90993  0.52655  Biso   1.000  C
  C17      1.0000 0.03697  0.52655  0.90993  Biso   1.000  C
  C18      1.0000 0.90993  0.52655  0.03697  Biso   1.000  C
  C19      1.0000 0.52655  0.03697  0.52655  Biso   1.000  C
  C20      1.0000 0.52655  0.90993  0.52655  Biso   1.000  C
  C21      1.0000 0.90993  0.52655  0.52655  Biso   1.000  C
  C22      1.0000 0.03697  0.52655  0.52655  Biso   1.000  C
  C23      1.0000 0.52655  0.03697  0.90993  Biso   1.000  C
  C24      1.0000 0.52655  0.90993  0.03697  Biso   1.000  C
  C25      1.0000 0.38857  0.38857  0.11143  Biso   1.000  C
  C26      1.0000 0.44620  0.44620  0.05380  Biso   1.000  C
  C27      1.0000 0.11143  0.11143  0.38857  Biso   1.000  C
  C28      1.0000 0.05380  0.05380  0.44620  Biso   1.000  C
  C29      1.0000 0.38857  0.11143  0.11143  Biso   1.000  C
  C30      1.0000 0.44620  0.05380  0.05380  Biso   1.000  C
  C31      1.0000 0.11143  0.38857  0.38857  Biso   1.000  C
  C32      1.0000 0.05380  0.44620  0.44620  Biso   1.000  C
  C33      1.0000 0.38857  0.11143  0.38857  Biso   1.000  C
  C34      1.0000 0.44620  0.05380  0.44620  Biso   1.000  C
  C35      1.0000 0.11143  0.38857  0.11143  Biso   1.000  C
  C36      1.0000 0.05380  0.44620  0.05380  Biso   1.000  C
  C37      1.0000 0.61143  0.61143  0.88857  Biso   1.000  C
  C38      1.0000 0.55380  0.55380  0.94620  Biso   1.000  C
  C39      1.0000 0.88857  0.88857  0.61143  Biso   1.000  C
  C40      1.0000 0.94620  0.94620  0.55380  Biso   1.000  C
  C41      1.0000 0.88857  0.61143  0.88857  Biso   1.000  C
  C42      1.0000 0.94620  0.55380  0.94620  Biso   1.000  C
  C43      1.0000 0.61143  0.88857  0.61143  Biso   1.000  C
  C44      1.0000 0.55380  0.94620  0.55380  Biso   1.000  C
  C45      1.0000 0.88857  0.61143  0.61143  Biso   1.000  C
  C46      1.0000 0.94620  0.55380  0.55380  Biso   1.000  C
  C47      1.0000 0.61143  0.88857  0.88857  Biso   1.000  C
  C48      1.0000 0.55380  0.94620  0.94620  Biso   1.000  C
  O1       1.0000 0.25000  0.25000  0.25000  Biso   1.000  O
  O2       1.0000 0.75000  0.75000  0.75000  Biso   1.000  O
  O3       1.0000 0.36603  0.36603  0.07311  Biso   1.000  O
  O4       1.0000 0.36603  0.36603  0.19483  Biso   1.000  O
  O5       1.0000 0.07311  0.19483  0.36603  Biso   1.000  O
  O6       1.0000 0.19483  0.07311  0.36603  Biso   1.000  O
  O7       1.0000 0.36603  0.07311  0.19483  Biso   1.000  O
  O8       1.0000 0.36603  0.19483  0.07311  Biso   1.000  O
  O9       1.0000 0.07311  0.36603  0.36603  Biso   1.000  O
  O10      1.0000 0.19483  0.36603  0.36603  Biso   1.000  O
  O11      1.0000 0.36603  0.19483  0.36603  Biso   1.000  O
  O12      1.0000 0.36603  0.07311  0.36603  Biso   1.000  O
  O13      1.0000 0.07311  0.36603  0.19483  Biso   1.000  O
  O14      1.0000 0.19483  0.36603  0.07311  Biso   1.000  O
  O15      1.0000 0.63397  0.63397  0.92689  Biso   1.000  O
  O16      1.0000 0.63397  0.63397  0.80517  Biso   1.000  O
  O17      1.0000 0.80517  0.92689  0.63397  Biso   1.000  O
  O18      1.0000 0.92689  0.80517  0.63397  Biso   1.000  O
  O19      1.0000 0.92689  0.63397  0.80517  Biso   1.000  O
  O20      1.0000 0.80517  0.63397  0.92689  Biso   1.000  O
  O21      1.0000 0.63397  0.92689  0.63397  Biso   1.000  O
  O22      1.0000 0.63397  0.80517  0.63397  Biso   1.000  O
  O23      1.0000 0.80517  0.63397  0.63397  Biso   1.000  O
  O24      1.0000 0.92689  0.63397  0.63397  Biso   1.000  O
  O25      1.0000 0.63397  0.92689  0.80517  Biso   1.000  O
  O26      1.0000 0.63397  0.80517  0.92689  Biso   1.000  O
  Zn9      1.0000 0.99453  0.97486  0.87264  Biso   1.000  Zn
  Zn10     1.0000 0.99458  0.14724  0.87259  Biso   1.000  Zn
  Zn11     1.0000 0.16697  0.97486  0.87264  Biso   1.000  Zn
  Zn12     1.0000 0.99458  0.97481  0.04502  Biso   1.000  Zn
  Zn13     1.0000 0.57819  0.56364  0.46142  Biso   1.000  Zn
  Zn14     1.0000 0.57814  0.39125  0.46147  Biso   1.000  Zn
  Zn15     1.0000 0.40576  0.56364  0.46142  Biso   1.000  Zn
  Zn16     1.0000 0.57814  0.56369  0.28904  Biso   1.000  Zn
  C49      1.0000 0.81505  0.17471  0.69410  Biso   1.000  C
  C50      1.0000 0.19464  0.79611  0.69210  Biso   1.000  C
  C51      1.0000 0.81445  0.79710  0.07249  Biso   1.000  C
  C52      1.0000 0.81606  0.31065  0.69310  Biso   1.000  C
  C53      1.0000 0.81406  0.31166  0.07269  Biso   1.000  C
  C54      1.0000 0.19445  0.31046  0.69250  Biso   1.000  C
  C55      1.0000 0.32515  0.79632  0.07248  Biso   1.000  C
  C56      1.0000 0.32615  0.79432  0.69389  Biso   1.000  C
  C57      1.0000 0.32495  0.17472  0.69488  Biso   1.000  C
  C58      1.0000 0.18920  0.79532  0.20844  Biso   1.000  C
  C59      1.0000 0.81059  0.17491  0.20944  Biso   1.000  C
  C60      1.0000 0.81160  0.79471  0.20825  Biso   1.000  C
  C61      1.0000 0.75768  0.36379  0.63996  Biso   1.000  C
  C62      1.0000 0.37808  0.74239  0.64196  Biso   1.000  C
  C63      1.0000 0.75828  0.74139  0.26157  Biso   1.000  C
  C64      1.0000 0.75666  0.22785  0.64096  Biso   1.000  C
  C65      1.0000 0.75867  0.22684  0.26137  Biso   1.000  C
  C66      1.0000 0.37827  0.22804  0.64156  Biso   1.000  C
  C67      1.0000 0.24758  0.74218  0.26158  Biso   1.000  C
  C68      1.0000 0.24657  0.74418  0.64017  Biso   1.000  C
  C69      1.0000 0.24777  0.36378  0.63918  Biso   1.000  C
  C70      1.0000 0.38353  0.74318  0.12562  Biso   1.000  C
  C71      1.0000 0.76213  0.36358  0.12462  Biso   1.000  C
  C72      1.0000 0.76113  0.74379  0.12581  Biso   1.000  C
  C73      1.0000 0.84249  0.21311  0.72055  Biso   1.000  C
  C74      1.0000 0.90086  0.15474  0.77892  Biso   1.000  C
  C75      1.0000 0.23284  0.82277  0.11089  Biso   1.000  C
  C76      1.0000 0.17447  0.88114  0.05252  Biso   1.000  C
  C77      1.0000 0.73023  0.32538  0.61351  Biso   1.000  C
  C78      1.0000 0.67186  0.38375  0.55514  Biso   1.000  C
  C79      1.0000 0.33988  0.71573  0.22317  Biso   1.000  C
  C80      1.0000 0.39826  0.65735  0.28154  Biso   1.000  C
  C81      1.0000 0.84230  0.82257  0.11109  Biso   1.000  C
  C82      1.0000 0.90039  0.88067  0.05300  Biso   1.000  C
  C83      1.0000 0.23303  0.21331  0.72035  Biso   1.000  C
  C84      1.0000 0.17494  0.15522  0.77844  Biso   1.000  C
  C85      1.0000 0.73042  0.71592  0.22297  Biso   1.000  C
  C86      1.0000 0.67233  0.65783  0.28106  Biso   1.000  C
  C87      1.0000 0.33969  0.32518  0.61371  Biso   1.000  C
  C88      1.0000 0.39778  0.38328  0.55562  Biso   1.000  C
  C89      1.0000 0.23324  0.82237  0.72015  Biso   1.000  C
  C90      1.0000 0.17514  0.88046  0.77824  Biso   1.000  C
  C91      1.0000 0.84209  0.21352  0.11129  Biso   1.000  C
  C92      1.0000 0.90019  0.15542  0.05319  Biso   1.000  C
  C93      1.0000 0.33948  0.71613  0.61391  Biso   1.000  C
  C94      1.0000 0.39758  0.65803  0.55582  Biso   1.000  C
  C95      1.0000 0.73063  0.32498  0.22277  Biso   1.000  C
  C96      1.0000 0.67254  0.38307  0.28086  Biso   1.000  C
  O27      1.0000 0.92335  0.07094  0.79981  Biso   1.000  O
  O28      1.0000 0.92142  0.90362  0.96956  Biso   1.000  O
  O29      1.0000 0.09025  0.90326  0.80023  Biso   1.000  O
  O30      1.0000 0.92175  0.19517  0.80140  Biso   1.000  O
  O31      1.0000 0.09150  0.19467  0.79947  Biso   1.000  O
  O32      1.0000 0.92217  0.19553  0.96830  Biso   1.000  O
  O33      1.0000 0.21489  0.90203  0.96872  Biso   1.000  O
  O34      1.0000 0.21439  0.07178  0.80140  Biso   1.000  O
  O35      1.0000 0.21525  0.90245  0.80104  Biso   1.000  O
  O36      1.0000 0.09067  0.90362  0.09295  Biso   1.000  O
  O37      1.0000 0.92335  0.90170  0.09245  Biso   1.000  O
  O38      1.0000 0.92299  0.07053  0.09330  Biso   1.000  O
  O39      1.0000 0.64938  0.46755  0.53425  Biso   1.000  O
  O40      1.0000 0.65130  0.63487  0.36450  Biso   1.000  O
  O41      1.0000 0.48247  0.63523  0.53383  Biso   1.000  O
  O42      1.0000 0.65097  0.34333  0.53266  Biso   1.000  O
  O43      1.0000 0.48122  0.34382  0.53459  Biso   1.000  O
  O44      1.0000 0.65055  0.34297  0.36576  Biso   1.000  O
  O45      1.0000 0.35783  0.63646  0.36534  Biso   1.000  O
  O46      1.0000 0.35833  0.46672  0.53266  Biso   1.000  O
  O47      1.0000 0.35747  0.63605  0.53302  Biso   1.000  O
  O48      1.0000 0.48205  0.63487  0.24111  Biso   1.000  O
  O49      1.0000 0.64937  0.63680  0.24161  Biso   1.000  O
  O50      1.0000 0.64973  0.46797  0.24076  Biso   1.000  O
  O51      1.0000 0.03767  0.01794  0.91572  Biso   1.000  O
  O52      1.0000 0.53506  0.52055  0.41834  Biso   1.000  O
  H25      1.0000 0.11844  0.81894  0.71346  Biso   1.000  H
  H26      1.0000 0.35816  0.81567  0.71672  Biso   1.000  H
  H27      1.0000 0.45428  0.71956  0.62060  Biso   1.000  H
  H28      1.0000 0.21456  0.72282  0.61734  Biso   1.000  H
  H29      1.0000 0.35696  0.09853  0.71796  Biso   1.000  H
  H30      1.0000 0.45446  0.19602  0.62047  Biso   1.000  H
  H31      1.0000 0.83554  0.82018  0.99630  Biso   1.000  H
  H32      1.0000 0.73805  0.72269  0.09380  Biso   1.000  H
  H33      1.0000 0.83856  0.34267  0.71478  Biso   1.000  H
  H34      1.0000 0.83541  0.34367  0.99649  Biso   1.000  H
  H35      1.0000 0.45973  0.72150  0.09360  Biso   1.000  H
  H36      1.0000 0.73930  0.43978  0.09261  Biso   1.000  H
  H37      1.0000 0.11827  0.34247  0.71359  Biso   1.000  H
  H38      1.0000 0.21576  0.43997  0.61610  Biso   1.000  H
  H39      1.0000 0.83467  0.81581  0.24026  Biso   1.000  H
  H40      1.0000 0.73718  0.71831  0.33776  Biso   1.000  H
  H41      1.0000 0.21556  0.71968  0.33777  Biso   1.000  H
  H42      1.0000 0.83342  0.09871  0.24145  Biso   1.000  H
  H43      1.0000 0.73731  0.19483  0.33757  Biso   1.000  H
  H44      1.0000 0.11300  0.81699  0.24046  Biso   1.000  H
  H45      1.0000 0.73416  0.19582  0.61928  Biso   1.000  H
  H46      1.0000 0.83672  0.09851  0.71660  Biso   1.000  H
  H47      1.0000 0.73600  0.43999  0.61746  Biso   1.000  H
