data_image0
_cell_length_a       18.2344
_cell_length_b       18.2344
_cell_length_c       18.2344
_cell_angle_alpha    60
_cell_angle_beta     60
_cell_angle_gamma    60

_symmetry_space_group_name_H-M    "P 1"
_symmetry_int_tables_number       1

loop_
  _symmetry_equiv_pos_as_xyz
  'x, y, z'

loop_
  _atom_site_label
  _atom_site_occupancy
  _atom_site_fract_x
  _atom_site_fract_y
  _atom_site_fract_z
  _atom_site_thermal_displace_type
  _atom_site_B_iso_or_equiv
  _atom_site_type_symbol
  C1       1.0000 0.29357  0.29359  0.11925  Biso   1.000  C
  C2       1.0000 0.29358  0.29358  0.29359  Biso   1.000  C
  C3       1.0000 0.11924  0.29359  0.29358  Biso   1.000  C
  C4       1.0000 0.29358  0.11925  0.29359  Biso   1.000  C
  C5       1.0000 0.70642  0.70642  0.88075  Biso   1.000  C
  C6       1.0000 0.70641  0.70642  0.70642  Biso   1.000  C
  C7       1.0000 0.70642  0.88075  0.70642  Biso   1.000  C
  C8       1.0000 0.88075  0.70642  0.70641  Biso   1.000  C
  C9       1.0000 0.45590  0.45590  0.93650  Biso   1.000  C
  C10      1.0000 0.45590  0.45590  0.15170  Biso   1.000  C
  C11      1.0000 0.93650  0.15170  0.45590  Biso   1.000  C
  C12      1.0000 0.15170  0.93650  0.45590  Biso   1.000  C
  C13      1.0000 0.45590  0.93650  0.15170  Biso   1.000  C
  C14      1.0000 0.45590  0.15170  0.93650  Biso   1.000  C
  C15      1.0000 0.93650  0.45590  0.45590  Biso   1.000  C
  C16      1.0000 0.15170  0.45590  0.45590  Biso   1.000  C
  C17      1.0000 0.45590  0.15170  0.45590  Biso   1.000  C
  C18      1.0000 0.45590  0.93650  0.45590  Biso   1.000  C
  C19      1.0000 0.93650  0.45590  0.15170  Biso   1.000  C
  C20      1.0000 0.15170  0.45590  0.93650  Biso   1.000  C
  C21      1.0000 0.54410  0.54410  0.06350  Biso   1.000  C
  C22      1.0000 0.54410  0.54410  0.84830  Biso   1.000  C
  C23      1.0000 0.84830  0.06350  0.54410  Biso   1.000  C
  C24      1.0000 0.06350  0.84830  0.54410  Biso   1.000  C
  C25      1.0000 0.06350  0.54410  0.84830  Biso   1.000  C
  C26      1.0000 0.84830  0.54410  0.06350  Biso   1.000  C
  C27      1.0000 0.54410  0.06350  0.54410  Biso   1.000  C
  C28      1.0000 0.54410  0.84830  0.54410  Biso   1.000  C
  C29      1.0000 0.84830  0.54410  0.54410  Biso   1.000  C
  C30      1.0000 0.06350  0.54410  0.54410  Biso   1.000  C
  C31      1.0000 0.54410  0.06350  0.84830  Biso   1.000  C
  C32      1.0000 0.54410  0.84830  0.06350  Biso   1.000  C
  C33      1.0000 0.47360  0.47360  0.96326  Biso   1.000  C
  C34      1.0000 0.47360  0.47360  0.08954  Biso   1.000  C
  C35      1.0000 0.96326  0.08954  0.47360  Biso   1.000  C
  C36      1.0000 0.08954  0.96326  0.47360  Biso   1.000  C
  C37      1.0000 0.47360  0.96326  0.08954  Biso   1.000  C
  C38      1.0000 0.47360  0.08954  0.96326  Biso   1.000  C
  C39      1.0000 0.96326  0.47360  0.47360  Biso   1.000  C
  C40      1.0000 0.08954  0.47360  0.47360  Biso   1.000  C
  C41      1.0000 0.47360  0.08954  0.47360  Biso   1.000  C
  C42      1.0000 0.47360  0.96326  0.47360  Biso   1.000  C
  C43      1.0000 0.96326  0.47360  0.08954  Biso   1.000  C
  C44      1.0000 0.08954  0.47360  0.96326  Biso   1.000  C
  C45      1.0000 0.52640  0.52640  0.03674  Biso   1.000  C
  C46      1.0000 0.52640  0.52640  0.91046  Biso   1.000  C
  C47      1.0000 0.91046  0.03674  0.52640  Biso   1.000  C
  C48      1.0000 0.03674  0.91046  0.52640  Biso   1.000  C
  C49      1.0000 0.03674  0.52640  0.91046  Biso   1.000  C
  C50      1.0000 0.91046  0.52640  0.03674  Biso   1.000  C
  C51      1.0000 0.52640  0.03674  0.52640  Biso   1.000  C
  C52      1.0000 0.52640  0.91046  0.52640  Biso   1.000  C
  C53      1.0000 0.91046  0.52640  0.52640  Biso   1.000  C
  C54      1.0000 0.03674  0.52640  0.52640  Biso   1.000  C
  C55      1.0000 0.52640  0.03674  0.91046  Biso   1.000  C
  C56      1.0000 0.52640  0.91046  0.03674  Biso   1.000  C
  C57      1.0000 0.38860  0.38860  0.11140  Biso   1.000  C
  C58      1.0000 0.44640  0.44640  0.05360  Biso   1.000  C
  C59      1.0000 0.11140  0.11140  0.38860  Biso   1.000  C
  C60      1.0000 0.05360  0.05360  0.44640  Biso   1.000  C
  C61      1.0000 0.38860  0.11140  0.11140  Biso   1.000  C
  C62      1.0000 0.44640  0.05360  0.05360  Biso   1.000  C
  C63      1.0000 0.11140  0.38860  0.38860  Biso   1.000  C
  C64      1.0000 0.05360  0.44640  0.44640  Biso   1.000  C
  C65      1.0000 0.38860  0.11140  0.38860  Biso   1.000  C
  C66      1.0000 0.44640  0.05360  0.44640  Biso   1.000  C
  C67      1.0000 0.11140  0.38860  0.11140  Biso   1.000  C
  C68      1.0000 0.05360  0.44640  0.05360  Biso   1.000  C
  C69      1.0000 0.61140  0.61140  0.88860  Biso   1.000  C
  C70      1.0000 0.55360  0.55360  0.94640  Biso   1.000  C
  C71      1.0000 0.88860  0.88860  0.61140  Biso   1.000  C
  C72      1.0000 0.94640  0.94640  0.55360  Biso   1.000  C
  C73      1.0000 0.88860  0.61140  0.88860  Biso   1.000  C
  C74      1.0000 0.94640  0.55360  0.94640  Biso   1.000  C
  C75      1.0000 0.61140  0.88860  0.61140  Biso   1.000  C
  C76      1.0000 0.55360  0.94640  0.55360  Biso   1.000  C
  C77      1.0000 0.88860  0.61140  0.61140  Biso   1.000  C
  C78      1.0000 0.94640  0.55360  0.55360  Biso   1.000  C
  C79      1.0000 0.61140  0.88860  0.88860  Biso   1.000  C
  C80      1.0000 0.55360  0.94640  0.94640  Biso   1.000  C
  C81      1.0000 0.25000  0.25000  0.25000  Biso   1.000  C
  C82      1.0000 0.75000  0.75000  0.75000  Biso   1.000  C
  C83      1.0000 0.36604  0.36604  0.07340  Biso   1.000  C
  C84      1.0000 0.36604  0.36604  0.19452  Biso   1.000  C
  C85      1.0000 0.07340  0.19452  0.36604  Biso   1.000  C
  C86      1.0000 0.19452  0.07340  0.36604  Biso   1.000  C
  C87      1.0000 0.36604  0.07340  0.19452  Biso   1.000  C
  C88      1.0000 0.36604  0.19452  0.07340  Biso   1.000  C
  C89      1.0000 0.07340  0.36604  0.36604  Biso   1.000  C
  C90      1.0000 0.19452  0.36604  0.36604  Biso   1.000  C
  C91      1.0000 0.36604  0.19452  0.36604  Biso   1.000  C
  C92      1.0000 0.36604  0.07340  0.36604  Biso   1.000  C
  C93      1.0000 0.07340  0.36604  0.19452  Biso   1.000  C
  C94      1.0000 0.19452  0.36604  0.07340  Biso   1.000  C
  C95      1.0000 0.63396  0.63396  0.92660  Biso   1.000  C
  C96      1.0000 0.63396  0.63396  0.80548  Biso   1.000  C
  C97      1.0000 0.80548  0.92660  0.63396  Biso   1.000  C
  C98      1.0000 0.92660  0.80548  0.63396  Biso   1.000  C
  C99      1.0000 0.92660  0.63396  0.80548  Biso   1.000  C
  C100     1.0000 0.80548  0.63396  0.92660  Biso   1.000  C
  C101     1.0000 0.63396  0.92660  0.63396  Biso   1.000  C
  C102     1.0000 0.63396  0.80548  0.63396  Biso   1.000  C
  C103     1.0000 0.80548  0.63396  0.63396  Biso   1.000  C
  C104     1.0000 0.92660  0.63396  0.63396  Biso   1.000  C
  C105     1.0000 0.63396  0.92660  0.80548  Biso   1.000  C
  C106     1.0000 0.63396  0.80548  0.92660  Biso   1.000  C
  O1       1.0000 0.68680  0.34988  0.47017  Biso   1.000  O
  O2       1.0000 0.09881  0.76188  0.05815  Biso   1.000  O
  O3       1.0000 0.92428  0.93641  0.05815  Biso   1.000  O
  O4       1.0000 0.51227  0.52441  0.47017  Biso   1.000  O
  O5       1.0000 0.51208  0.34968  0.64484  Biso   1.000  O
  O6       1.0000 0.51221  0.34981  0.46996  Biso   1.000  O
  O7       1.0000 0.09901  0.93661  0.88348  Biso   1.000  O
  O8       1.0000 0.09888  0.93648  0.05836  Biso   1.000  O
  O9       1.0000 0.34940  0.70653  0.61170  Biso   1.000  O
  O10      1.0000 0.34628  0.49118  0.82582  Biso   1.000  O
  O11      1.0000 0.35302  0.70455  0.30889  Biso   1.000  O
  O12      1.0000 0.35251  0.49000  0.30359  Biso   1.000  O
  O13      1.0000 0.86805  0.49060  0.31069  Biso   1.000  O
  O14      1.0000 0.74215  0.09930  0.91661  Biso   1.000  O
  O15      1.0000 0.95751  0.10241  0.70249  Biso   1.000  O
  O16      1.0000 0.74414  0.09568  0.21942  Biso   1.000  O
  O17      1.0000 0.95869  0.09618  0.22473  Biso   1.000  O
  O18      1.0000 0.95808  0.58064  0.21762  Biso   1.000  O
  O19      1.0000 0.26169  0.57976  0.91661  Biso   1.000  O
  O20      1.0000 0.26481  0.79511  0.70249  Biso   1.000  O
  O21      1.0000 0.25807  0.58175  0.21942  Biso   1.000  O
  O22      1.0000 0.25858  0.79629  0.22473  Biso   1.000  O
  O23      1.0000 0.74304  0.79569  0.21762  Biso   1.000  O
  O24      1.0000 0.86893  0.18700  0.61170  Biso   1.000  O
  O25      1.0000 0.65357  0.18388  0.82582  Biso   1.000  O
  O26      1.0000 0.86695  0.19062  0.30889  Biso   1.000  O
  O27      1.0000 0.65240  0.19012  0.30359  Biso   1.000  O
  O28      1.0000 0.65301  0.70565  0.31069  Biso   1.000  O
  O29      1.0000 0.35070  0.18830  0.61100  Biso   1.000  O
  O30      1.0000 0.34798  0.18558  0.82972  Biso   1.000  O
  O31      1.0000 0.26039  0.09799  0.91731  Biso   1.000  O
  O32      1.0000 0.26311  0.10071  0.69859  Biso   1.000  O
  O33      1.0000 0.41745  0.53413  0.65044  Biso   1.000  O
  O34      1.0000 0.35859  0.59118  0.71090  Biso   1.000  O
  O35      1.0000 0.33248  0.68000  0.67406  Biso   1.000  O
  O36      1.0000 0.33066  0.55344  0.80019  Biso   1.000  O
  O37      1.0000 0.41787  0.53294  0.37356  Biso   1.000  O
  O38      1.0000 0.36192  0.58870  0.31660  Biso   1.000  O
  O39      1.0000 0.33410  0.67882  0.29137  Biso   1.000  O
  O40      1.0000 0.33369  0.55207  0.28797  Biso   1.000  O
  O41      1.0000 0.84172  0.55277  0.29117  Biso   1.000  O
  O42      1.0000 0.91456  0.03123  0.87787  Biso   1.000  O
  O43      1.0000 0.85751  0.09009  0.81741  Biso   1.000  O
  O44      1.0000 0.76868  0.11622  0.85425  Biso   1.000  O
  O45      1.0000 0.89525  0.11802  0.72812  Biso   1.000  O
  O46      1.0000 0.91575  0.03082  0.15475  Biso   1.000  O
  O47      1.0000 0.85999  0.08677  0.21171  Biso   1.000  O
  O48      1.0000 0.76986  0.11459  0.23694  Biso   1.000  O
  O49      1.0000 0.89662  0.11499  0.24034  Biso   1.000  O
  O50      1.0000 0.89592  0.60697  0.23714  Biso   1.000  O
  O51      1.0000 0.19363  0.75216  0.87787  Biso   1.000  O
  O52      1.0000 0.25249  0.69511  0.81741  Biso   1.000  O
  O53      1.0000 0.27861  0.60629  0.85425  Biso   1.000  O
  O54      1.0000 0.28043  0.73285  0.72812  Biso   1.000  O
  O55      1.0000 0.19322  0.75335  0.15475  Biso   1.000  O
  O56      1.0000 0.24917  0.69759  0.21171  Biso   1.000  O
  O57      1.0000 0.27698  0.60747  0.23694  Biso   1.000  O
  O58      1.0000 0.27739  0.73423  0.24034  Biso   1.000  O
  O59      1.0000 0.76937  0.73353  0.23714  Biso   1.000  O
  O60      1.0000 0.69652  0.25506  0.65044  Biso   1.000  O
  O61      1.0000 0.75358  0.19620  0.71090  Biso   1.000  O
  O62      1.0000 0.84240  0.17008  0.67406  Biso   1.000  O
  O63      1.0000 0.71583  0.16827  0.80019  Biso   1.000  O
  O64      1.0000 0.69534  0.25547  0.37356  Biso   1.000  O
  O65      1.0000 0.75110  0.19952  0.31660  Biso   1.000  O
  O66      1.0000 0.84123  0.17170  0.29137  Biso   1.000  O
  O67      1.0000 0.71446  0.17130  0.28797  Biso   1.000  O
  O68      1.0000 0.71517  0.67932  0.29117  Biso   1.000  O
  O69      1.0000 0.41575  0.25336  0.65705  Biso   1.000  O
  O70      1.0000 0.35960  0.19720  0.71010  Biso   1.000  O
  O71      1.0000 0.33297  0.17058  0.67306  Biso   1.000  O
  O72      1.0000 0.33057  0.16817  0.80220  Biso   1.000  O
  O73      1.0000 0.69243  0.53004  0.37876  Biso   1.000  O
  O74      1.0000 0.75269  0.59030  0.31670  Biso   1.000  O
  O75      1.0000 0.19533  0.03293  0.87127  Biso   1.000  O
  O76      1.0000 0.25149  0.08909  0.81821  Biso   1.000  O
  O77      1.0000 0.27811  0.11572  0.85525  Biso   1.000  O
  O78      1.0000 0.28052  0.11812  0.72612  Biso   1.000  O
  O79      1.0000 0.91865  0.75625  0.14955  Biso   1.000  O
  O80      1.0000 0.85839  0.69599  0.21161  Biso   1.000  O
  O81      1.0000 0.43757  0.44834  0.69399  Biso   1.000  O
  O82      1.0000 0.43998  0.57467  0.56766  Biso   1.000  O
  O83      1.0000 0.43729  0.44726  0.39888  Biso   1.000  O
  O84      1.0000 0.43949  0.57318  0.39608  Biso   1.000  O
  O85      1.0000 0.73487  0.44696  0.39838  Biso   1.000  O
  O86      1.0000 0.00035  0.01112  0.83433  Biso   1.000  O
  O87      1.0000 0.87402  0.00871  0.96066  Biso   1.000  O
  O88      1.0000 0.00143  0.01140  0.12943  Biso   1.000  O
  O89      1.0000 0.87551  0.00920  0.13223  Biso   1.000  O
  O90      1.0000 0.00174  0.71381  0.12993  Biso   1.000  O
  O91      1.0000 0.17352  0.83795  0.83433  Biso   1.000  O
  O92      1.0000 0.17111  0.71162  0.96066  Biso   1.000  O
  O93      1.0000 0.17380  0.83903  0.12943  Biso   1.000  O
  O94      1.0000 0.17160  0.71311  0.13223  Biso   1.000  O
  O95      1.0000 0.87621  0.83933  0.12993  Biso   1.000  O
  O96      1.0000 0.61074  0.27518  0.69399  Biso   1.000  O
  O97      1.0000 0.73707  0.27759  0.56766  Biso   1.000  O
  O98      1.0000 0.60965  0.27489  0.39888  Biso   1.000  O
  O99      1.0000 0.73558  0.27709  0.39608  Biso   1.000  O
  O100     1.0000 0.60935  0.57248  0.39838  Biso   1.000  O
  O101     1.0000 0.55570  0.39330  0.51410  Biso   1.000  O
  O102     1.0000 0.43897  0.27658  0.69298  Biso   1.000  O
  O103     1.0000 0.43738  0.27498  0.57236  Biso   1.000  O
  O104     1.0000 0.05539  0.89299  0.01421  Biso   1.000  O
  O105     1.0000 0.17211  0.00971  0.83533  Biso   1.000  O
