data_image0
_cell_length_a       18.3017
_cell_length_b       18.3017
_cell_length_c       18.3017
_cell_angle_alpha    60
_cell_angle_beta     60
_cell_angle_gamma    60

_symmetry_space_group_name_H-M    "P 1"
_symmetry_int_tables_number       1

loop_
  _symmetry_equiv_pos_as_xyz
  'x, y, z'

loop_
  _atom_site_label
  _atom_site_occupancy
  _atom_site_fract_x
  _atom_site_fract_y
  _atom_site_fract_z
  _atom_site_thermal_displace_type
  _atom_site_B_iso_or_equiv
  _atom_site_type_symbol
  Zn1      1.0000 0.29342  0.29343  0.11972  Biso   1.000  Zn
  Zn2      1.0000 0.29343  0.29342  0.29343  Biso   1.000  Zn
  Zn3      1.0000 0.11972  0.29343  0.29342  Biso   1.000  Zn
  Zn4      1.0000 0.29343  0.11972  0.29343  Biso   1.000  Zn
  Zn5      1.0000 0.70657  0.70658  0.88028  Biso   1.000  Zn
  Zn6      1.0000 0.70657  0.70658  0.70657  Biso   1.000  Zn
  Zn7      1.0000 0.70658  0.88028  0.70657  Biso   1.000  Zn
  Zn8      1.0000 0.88029  0.70657  0.70657  Biso   1.000  Zn
  H1       1.0000 0.45510  0.45510  0.93470  Biso   1.000  H
  H2       1.0000 0.45510  0.45510  0.15510  Biso   1.000  H
  H3       1.0000 0.93470  0.15510  0.45510  Biso   1.000  H
  H4       1.0000 0.15510  0.93470  0.45510  Biso   1.000  H
  H5       1.0000 0.45510  0.93470  0.15510  Biso   1.000  H
  H6       1.0000 0.45510  0.15510  0.93470  Biso   1.000  H
  H7       1.0000 0.93470  0.45510  0.45510  Biso   1.000  H
  H8       1.0000 0.15510  0.45510  0.45510  Biso   1.000  H
  H9       1.0000 0.45510  0.15510  0.45510  Biso   1.000  H
  H10      1.0000 0.45510  0.93470  0.45510  Biso   1.000  H
  H11      1.0000 0.93470  0.45510  0.15510  Biso   1.000  H
  H12      1.0000 0.15510  0.45510  0.93470  Biso   1.000  H
  H13      1.0000 0.54490  0.54490  0.06530  Biso   1.000  H
  H14      1.0000 0.54490  0.54490  0.84490  Biso   1.000  H
  H15      1.0000 0.84490  0.06530  0.54490  Biso   1.000  H
  H16      1.0000 0.06530  0.84490  0.54490  Biso   1.000  H
  H17      1.0000 0.06530  0.54490  0.84490  Biso   1.000  H
  H18      1.0000 0.84490  0.54490  0.06530  Biso   1.000  H
  H19      1.0000 0.54490  0.06530  0.54490  Biso   1.000  H
  H20      1.0000 0.54490  0.84490  0.54490  Biso   1.000  H
  H21      1.0000 0.84490  0.54490  0.54490  Biso   1.000  H
  H22      1.0000 0.06530  0.54490  0.54490  Biso   1.000  H
  H23      1.0000 0.54490  0.06530  0.84490  Biso   1.000  H
  H24      1.0000 0.54490  0.84490  0.06530  Biso   1.000  H
  C1       1.0000 0.47334  0.47334  0.96156  Biso   1.000  C
  C2       1.0000 0.47334  0.47334  0.09176  Biso   1.000  C
  C3       1.0000 0.96156  0.09176  0.47334  Biso   1.000  C
  C4       1.0000 0.09176  0.96156  0.47334  Biso   1.000  C
  C5       1.0000 0.47334  0.96156  0.09176  Biso   1.000  C
  C6       1.0000 0.47334  0.09176  0.96156  Biso   1.000  C
  C7       1.0000 0.96156  0.47334  0.47334  Biso   1.000  C
  C8       1.0000 0.09176  0.47334  0.47334  Biso   1.000  C
  C9       1.0000 0.47334  0.09176  0.47334  Biso   1.000  C
  C10      1.0000 0.47334  0.96156  0.47334  Biso   1.000  C
  C11      1.0000 0.96156  0.47334  0.09176  Biso   1.000  C
  C12      1.0000 0.09176  0.47334  0.96156  Biso   1.000  C
  C13      1.0000 0.52666  0.52666  0.03844  Biso   1.000  C
  C14      1.0000 0.52666  0.52666  0.90824  Biso   1.000  C
  C15      1.0000 0.90824  0.03844  0.52666  Biso   1.000  C
  C16      1.0000 0.03844  0.90824  0.52666  Biso   1.000  C
  C17      1.0000 0.03844  0.52666  0.90824  Biso   1.000  C
  C18      1.0000 0.90824  0.52666  0.03844  Biso   1.000  C
  C19      1.0000 0.52666  0.03844  0.52666  Biso   1.000  C
  C20      1.0000 0.52666  0.90824  0.52666  Biso   1.000  C
  C21      1.0000 0.90824  0.52666  0.52666  Biso   1.000  C
  C22      1.0000 0.03844  0.52666  0.52666  Biso   1.000  C
  C23      1.0000 0.52666  0.03844  0.90824  Biso   1.000  C
  C24      1.0000 0.52666  0.90824  0.03844  Biso   1.000  C
  C25      1.0000 0.38843  0.38843  0.11157  Biso   1.000  C
  C26      1.0000 0.44642  0.44642  0.05358  Biso   1.000  C
  C27      1.0000 0.11157  0.11157  0.38843  Biso   1.000  C
  C28      1.0000 0.05358  0.05358  0.44642  Biso   1.000  C
  C29      1.0000 0.38843  0.11157  0.11157  Biso   1.000  C
  C30      1.0000 0.44642  0.05358  0.05358  Biso   1.000  C
  C31      1.0000 0.11157  0.38843  0.38843  Biso   1.000  C
  C32      1.0000 0.05358  0.44642  0.44642  Biso   1.000  C
  C33      1.0000 0.38843  0.11157  0.38843  Biso   1.000  C
  C34      1.0000 0.44642  0.05358  0.44642  Biso   1.000  C
  C35      1.0000 0.11157  0.38843  0.11157  Biso   1.000  C
  C36      1.0000 0.05358  0.44642  0.05358  Biso   1.000  C
  C37      1.0000 0.61157  0.61157  0.88843  Biso   1.000  C
  C38      1.0000 0.55358  0.55358  0.94642  Biso   1.000  C
  C39      1.0000 0.88843  0.88843  0.61157  Biso   1.000  C
  C40      1.0000 0.94642  0.94642  0.55358  Biso   1.000  C
  C41      1.0000 0.88843  0.61157  0.88843  Biso   1.000  C
  C42      1.0000 0.94642  0.55358  0.94642  Biso   1.000  C
  C43      1.0000 0.61157  0.88843  0.61157  Biso   1.000  C
  C44      1.0000 0.55358  0.94642  0.55358  Biso   1.000  C
  C45      1.0000 0.88843  0.61157  0.61157  Biso   1.000  C
  C46      1.0000 0.94642  0.55358  0.55358  Biso   1.000  C
  C47      1.0000 0.61157  0.88843  0.88843  Biso   1.000  C
  C48      1.0000 0.55358  0.94642  0.94642  Biso   1.000  C
  O1       1.0000 0.25000  0.25000  0.25000  Biso   1.000  O
  O2       1.0000 0.75000  0.75000  0.75000  Biso   1.000  O
  O3       1.0000 0.36609  0.36609  0.07295  Biso   1.000  O
  O4       1.0000 0.36609  0.36609  0.19487  Biso   1.000  O
  O5       1.0000 0.07295  0.19487  0.36609  Biso   1.000  O
  O6       1.0000 0.19487  0.07295  0.36609  Biso   1.000  O
  O7       1.0000 0.36609  0.07295  0.19487  Biso   1.000  O
  O8       1.0000 0.36609  0.19487  0.07295  Biso   1.000  O
  O9       1.0000 0.07295  0.36609  0.36609  Biso   1.000  O
  O10      1.0000 0.19487  0.36609  0.36609  Biso   1.000  O
  O11      1.0000 0.36609  0.19487  0.36609  Biso   1.000  O
  O12      1.0000 0.36609  0.07295  0.36609  Biso   1.000  O
  O13      1.0000 0.07295  0.36609  0.19487  Biso   1.000  O
  O14      1.0000 0.19487  0.36609  0.07295  Biso   1.000  O
  O15      1.0000 0.63391  0.63391  0.92705  Biso   1.000  O
  O16      1.0000 0.63391  0.63391  0.80513  Biso   1.000  O
  O17      1.0000 0.80513  0.92705  0.63391  Biso   1.000  O
  O18      1.0000 0.92705  0.80513  0.63391  Biso   1.000  O
  O19      1.0000 0.92705  0.63391  0.80513  Biso   1.000  O
  O20      1.0000 0.80513  0.63391  0.92705  Biso   1.000  O
  O21      1.0000 0.63391  0.92705  0.63391  Biso   1.000  O
  O22      1.0000 0.63391  0.80513  0.63391  Biso   1.000  O
  O23      1.0000 0.80513  0.63391  0.63391  Biso   1.000  O
  O24      1.0000 0.92705  0.63391  0.63391  Biso   1.000  O
  O25      1.0000 0.63391  0.92705  0.80513  Biso   1.000  O
  O26      1.0000 0.63391  0.80513  0.92705  Biso   1.000  O
  Zn9      1.0000 0.00550  0.83868  0.13384  Biso   1.000  Zn
  Zn10     1.0000 0.00550  0.01171  0.13384  Biso   1.000  Zn
  Zn11     1.0000 0.83247  0.01171  0.13384  Biso   1.000  Zn
  Zn12     1.0000 0.00550  0.01171  0.96082  Biso   1.000  Zn
  Zn13     1.0000 0.41745  0.42570  0.54784  Biso   1.000  Zn
  Zn14     1.0000 0.41745  0.59873  0.54784  Biso   1.000  Zn
  Zn15     1.0000 0.59048  0.42570  0.54784  Biso   1.000  Zn
  Zn16     1.0000 0.41745  0.42570  0.72086  Biso   1.000  Zn
  H25      1.0000 0.87493  0.65497  0.29098  Biso   1.000  H
  H26      1.0000 0.16264  0.16884  0.00327  Biso   1.000  H
  H27      1.0000 0.64876  0.88114  0.29098  Biso   1.000  H
  H28      1.0000 0.16264  0.16884  0.77710  Biso   1.000  H
  H29      1.0000 0.64876  0.16884  0.00327  Biso   1.000  H
  H30      1.0000 0.16264  0.88114  0.29098  Biso   1.000  H
  H31      1.0000 0.87493  0.16884  0.77710  Biso   1.000  H
  H32      1.0000 0.16264  0.65497  0.29098  Biso   1.000  H
  H33      1.0000 0.16264  0.88114  0.77710  Biso   1.000  H
  H34      1.0000 0.87493  0.16884  0.29098  Biso   1.000  H
  H35      1.0000 0.16264  0.65497  0.00327  Biso   1.000  H
  H36      1.0000 0.64876  0.16884  0.29098  Biso   1.000  H
  H37      1.0000 0.54802  0.26857  0.39070  Biso   1.000  H
  H38      1.0000 0.26031  0.78244  0.67841  Biso   1.000  H
  H39      1.0000 0.77419  0.26857  0.39070  Biso   1.000  H
  H40      1.0000 0.26031  0.55627  0.90457  Biso   1.000  H
  H41      1.0000 0.77419  0.26857  0.67841  Biso   1.000  H
  H42      1.0000 0.26031  0.78244  0.39070  Biso   1.000  H
  H43      1.0000 0.54802  0.26857  0.90457  Biso   1.000  H
  H44      1.0000 0.26031  0.55627  0.39070  Biso   1.000  H
  H45      1.0000 0.26031  0.26857  0.90457  Biso   1.000  H
  H46      1.0000 0.54802  0.78244  0.39070  Biso   1.000  H
  H47      1.0000 0.26031  0.26857  0.67841  Biso   1.000  H
  H48      1.0000 0.77419  0.55627  0.39070  Biso   1.000  H
  C49      1.0000 0.80460  0.68054  0.31336  Biso   1.000  C
  C50      1.0000 0.18501  0.19122  0.93294  Biso   1.000  C
  C51      1.0000 0.67434  0.81081  0.31336  Biso   1.000  C
  C52      1.0000 0.18501  0.19122  0.80268  Biso   1.000  C
  C53      1.0000 0.67434  0.19122  0.93295  Biso   1.000  C
  C54      1.0000 0.18501  0.81081  0.31336  Biso   1.000  C
  C55      1.0000 0.80460  0.19122  0.80268  Biso   1.000  C
  C56      1.0000 0.18501  0.68054  0.31336  Biso   1.000  C
  C57      1.0000 0.18501  0.81081  0.80268  Biso   1.000  C
  C58      1.0000 0.80460  0.19122  0.31336  Biso   1.000  C
  C59      1.0000 0.18501  0.68054  0.93294  Biso   1.000  C
  C60      1.0000 0.67434  0.19122  0.31336  Biso   1.000  C
  C61      1.0000 0.61835  0.24619  0.36832  Biso   1.000  C
  C62      1.0000 0.23794  0.75687  0.74873  Biso   1.000  C
  C63      1.0000 0.74861  0.24619  0.36832  Biso   1.000  C
  C64      1.0000 0.23794  0.62660  0.87900  Biso   1.000  C
  C65      1.0000 0.74861  0.24619  0.74873  Biso   1.000  C
  C66      1.0000 0.23794  0.75687  0.36832  Biso   1.000  C
  C67      1.0000 0.61835  0.24619  0.87900  Biso   1.000  C
  C68      1.0000 0.23794  0.62660  0.36832  Biso   1.000  C
  C69      1.0000 0.23794  0.24619  0.87900  Biso   1.000  C
  C70      1.0000 0.61835  0.75687  0.36832  Biso   1.000  C
  C71      1.0000 0.23794  0.24619  0.74873  Biso   1.000  C
  C72      1.0000 0.74861  0.62660  0.36832  Biso   1.000  C
  C73      1.0000 0.82308  0.82929  0.22974  Biso   1.000  C
  C74      1.0000 0.76664  0.77285  0.28618  Biso   1.000  C
  C75      1.0000 0.10140  0.10761  0.95143  Biso   1.000  C
  C76      1.0000 0.15784  0.16405  0.89498  Biso   1.000  C
  C77      1.0000 0.82308  0.10761  0.95143  Biso   1.000  C
  C78      1.0000 0.76664  0.16405  0.89498  Biso   1.000  C
  C79      1.0000 0.10140  0.82929  0.22974  Biso   1.000  C
  C80      1.0000 0.15784  0.77285  0.28618  Biso   1.000  C
  C81      1.0000 0.10140  0.82929  0.95143  Biso   1.000  C
  C82      1.0000 0.15784  0.77285  0.89498  Biso   1.000  C
  C83      1.0000 0.82308  0.10761  0.22974  Biso   1.000  C
  C84      1.0000 0.76664  0.16405  0.28618  Biso   1.000  C
  C85      1.0000 0.59987  0.32980  0.45194  Biso   1.000  C
  C86      1.0000 0.65631  0.27336  0.39549  Biso   1.000  C
  C87      1.0000 0.32155  0.60812  0.73025  Biso   1.000  C
  C88      1.0000 0.26511  0.66456  0.78669  Biso   1.000  C
  C89      1.0000 0.59987  0.32980  0.73025  Biso   1.000  C
  C90      1.0000 0.65631  0.27336  0.78669  Biso   1.000  C
  C91      1.0000 0.32155  0.60812  0.45194  Biso   1.000  C
  C92      1.0000 0.26511  0.66456  0.39549  Biso   1.000  C
  C93      1.0000 0.32155  0.32980  0.73025  Biso   1.000  C
  C94      1.0000 0.26511  0.27336  0.78669  Biso   1.000  C
  C95      1.0000 0.59987  0.60812  0.45194  Biso   1.000  C
  C96      1.0000 0.65631  0.66456  0.39549  Biso   1.000  C
  O27      1.0000 0.96224  0.96845  0.09058  Biso   1.000  O
  O28      1.0000 0.46071  0.46896  0.59109  Biso   1.000  O
  O29      1.0000 0.90760  0.79193  0.20617  Biso   1.000  O
  O30      1.0000 0.07782  0.08403  0.03594  Biso   1.000  O
  O31      1.0000 0.78572  0.91381  0.20617  Biso   1.000  O
  O32      1.0000 0.07782  0.08403  0.91406  Biso   1.000  O
  O33      1.0000 0.78572  0.08403  0.03594  Biso   1.000  O
  O34      1.0000 0.07782  0.91381  0.20617  Biso   1.000  O
  O35      1.0000 0.90760  0.08403  0.91406  Biso   1.000  O
  O36      1.0000 0.07782  0.79193  0.20617  Biso   1.000  O
  O37      1.0000 0.07782  0.91381  0.91406  Biso   1.000  O
  O38      1.0000 0.90760  0.08403  0.20617  Biso   1.000  O
  O39      1.0000 0.07782  0.79193  0.03594  Biso   1.000  O
  O40      1.0000 0.78572  0.08403  0.20617  Biso   1.000  O
  O41      1.0000 0.51535  0.35338  0.47551  Biso   1.000  O
  O42      1.0000 0.34513  0.64548  0.64574  Biso   1.000  O
  O43      1.0000 0.63723  0.35338  0.47551  Biso   1.000  O
  O44      1.0000 0.34513  0.52360  0.76761  Biso   1.000  O
  O45      1.0000 0.63723  0.35338  0.64574  Biso   1.000  O
  O46      1.0000 0.34513  0.64548  0.47551  Biso   1.000  O
  O47      1.0000 0.51535  0.35338  0.76761  Biso   1.000  O
  O48      1.0000 0.34513  0.52360  0.47551  Biso   1.000  O
  O49      1.0000 0.34513  0.35338  0.76761  Biso   1.000  O
  O50      1.0000 0.51535  0.64548  0.47551  Biso   1.000  O
  O51      1.0000 0.34513  0.35338  0.64574  Biso   1.000  O
