data_image0
_cell_length_a       18.2662
_cell_length_b       18.2662
_cell_length_c       18.2662
_cell_angle_alpha    60
_cell_angle_beta     60
_cell_angle_gamma    60

_symmetry_space_group_name_H-M    "P 1"
_symmetry_int_tables_number       1

loop_
  _symmetry_equiv_pos_as_xyz
  'x, y, z'

loop_
  _atom_site_label
  _atom_site_occupancy
  _atom_site_fract_x
  _atom_site_fract_y
  _atom_site_fract_z
  _atom_site_thermal_displace_type
  _atom_site_B_iso_or_equiv
  _atom_site_type_symbol
  C1       1.0000 0.29353  0.29352  0.11943  Biso   1.000  C
  C2       1.0000 0.29353  0.29352  0.29352  Biso   1.000  C
  C3       1.0000 0.11944  0.29352  0.29352  Biso   1.000  C
  C4       1.0000 0.29353  0.11943  0.29352  Biso   1.000  C
  C5       1.0000 0.70647  0.70648  0.88057  Biso   1.000  C
  C6       1.0000 0.70647  0.70648  0.70648  Biso   1.000  C
  C7       1.0000 0.70647  0.88057  0.70648  Biso   1.000  C
  C8       1.0000 0.88056  0.70648  0.70648  Biso   1.000  C
  C9       1.0000 0.45570  0.45570  0.93590  Biso   1.000  C
  C10      1.0000 0.45570  0.45570  0.15270  Biso   1.000  C
  C11      1.0000 0.93590  0.15270  0.45570  Biso   1.000  C
  C12      1.0000 0.15270  0.93590  0.45570  Biso   1.000  C
  C13      1.0000 0.45570  0.93590  0.15270  Biso   1.000  C
  C14      1.0000 0.45570  0.15270  0.93590  Biso   1.000  C
  C15      1.0000 0.93590  0.45570  0.45570  Biso   1.000  C
  C16      1.0000 0.15270  0.45570  0.45570  Biso   1.000  C
  C17      1.0000 0.45570  0.15270  0.45570  Biso   1.000  C
  C18      1.0000 0.45570  0.93590  0.45570  Biso   1.000  C
  C19      1.0000 0.93590  0.45570  0.15270  Biso   1.000  C
  C20      1.0000 0.15270  0.45570  0.93590  Biso   1.000  C
  C21      1.0000 0.54430  0.54430  0.06410  Biso   1.000  C
  C22      1.0000 0.54430  0.54430  0.84730  Biso   1.000  C
  C23      1.0000 0.84730  0.06410  0.54430  Biso   1.000  C
  C24      1.0000 0.06410  0.84730  0.54430  Biso   1.000  C
  C25      1.0000 0.06410  0.54430  0.84730  Biso   1.000  C
  C26      1.0000 0.84730  0.54430  0.06410  Biso   1.000  C
  C27      1.0000 0.54430  0.06410  0.54430  Biso   1.000  C
  C28      1.0000 0.54430  0.84730  0.54430  Biso   1.000  C
  C29      1.0000 0.84730  0.54430  0.54430  Biso   1.000  C
  C30      1.0000 0.06410  0.54430  0.54430  Biso   1.000  C
  C31      1.0000 0.54430  0.06410  0.84730  Biso   1.000  C
  C32      1.0000 0.54430  0.84730  0.06410  Biso   1.000  C
  C33      1.0000 0.47342  0.47342  0.96246  Biso   1.000  C
  C34      1.0000 0.47342  0.47342  0.09070  Biso   1.000  C
  C35      1.0000 0.96246  0.09070  0.47342  Biso   1.000  C
  C36      1.0000 0.09070  0.96246  0.47342  Biso   1.000  C
  C37      1.0000 0.47342  0.96246  0.09070  Biso   1.000  C
  C38      1.0000 0.47342  0.09070  0.96246  Biso   1.000  C
  C39      1.0000 0.96246  0.47342  0.47342  Biso   1.000  C
  C40      1.0000 0.09070  0.47342  0.47342  Biso   1.000  C
  C41      1.0000 0.47342  0.09070  0.47342  Biso   1.000  C
  C42      1.0000 0.47342  0.96246  0.47342  Biso   1.000  C
  C43      1.0000 0.96246  0.47342  0.09070  Biso   1.000  C
  C44      1.0000 0.09070  0.47342  0.96246  Biso   1.000  C
  C45      1.0000 0.52658  0.52658  0.03754  Biso   1.000  C
  C46      1.0000 0.52658  0.52658  0.90930  Biso   1.000  C
  C47      1.0000 0.90930  0.03754  0.52658  Biso   1.000  C
  C48      1.0000 0.03754  0.90930  0.52658  Biso   1.000  C
  C49      1.0000 0.03754  0.52658  0.90930  Biso   1.000  C
  C50      1.0000 0.90930  0.52658  0.03754  Biso   1.000  C
  C51      1.0000 0.52658  0.03754  0.52658  Biso   1.000  C
  C52      1.0000 0.52658  0.90930  0.52658  Biso   1.000  C
  C53      1.0000 0.90930  0.52658  0.52658  Biso   1.000  C
  C54      1.0000 0.03754  0.52658  0.52658  Biso   1.000  C
  C55      1.0000 0.52658  0.03754  0.90930  Biso   1.000  C
  C56      1.0000 0.52658  0.90930  0.03754  Biso   1.000  C
  C57      1.0000 0.38858  0.38858  0.11142  Biso   1.000  C
  C58      1.0000 0.44625  0.44625  0.05375  Biso   1.000  C
  C59      1.0000 0.11142  0.11142  0.38858  Biso   1.000  C
  C60      1.0000 0.05375  0.05375  0.44625  Biso   1.000  C
  C61      1.0000 0.38858  0.11142  0.11142  Biso   1.000  C
  C62      1.0000 0.44625  0.05375  0.05375  Biso   1.000  C
  C63      1.0000 0.11142  0.38858  0.38858  Biso   1.000  C
  C64      1.0000 0.05375  0.44625  0.44625  Biso   1.000  C
  C65      1.0000 0.38858  0.11142  0.38858  Biso   1.000  C
  C66      1.0000 0.44625  0.05375  0.44625  Biso   1.000  C
  C67      1.0000 0.11142  0.38858  0.11142  Biso   1.000  C
  C68      1.0000 0.05375  0.44625  0.05375  Biso   1.000  C
  C69      1.0000 0.61142  0.61142  0.88858  Biso   1.000  C
  C70      1.0000 0.55375  0.55375  0.94625  Biso   1.000  C
  C71      1.0000 0.88858  0.88858  0.61142  Biso   1.000  C
  C72      1.0000 0.94625  0.94625  0.55375  Biso   1.000  C
  C73      1.0000 0.88858  0.61142  0.88858  Biso   1.000  C
  C74      1.0000 0.94625  0.55375  0.94625  Biso   1.000  C
  C75      1.0000 0.61142  0.88858  0.61142  Biso   1.000  C
  C76      1.0000 0.55375  0.94625  0.55375  Biso   1.000  C
  C77      1.0000 0.88858  0.61142  0.61142  Biso   1.000  C
  C78      1.0000 0.94625  0.55375  0.55375  Biso   1.000  C
  C79      1.0000 0.61142  0.88858  0.88858  Biso   1.000  C
  C80      1.0000 0.55375  0.94625  0.94625  Biso   1.000  C
  C81      1.0000 0.25000  0.25000  0.25000  Biso   1.000  C
  C82      1.0000 0.75000  0.75000  0.75000  Biso   1.000  C
  C83      1.0000 0.36617  0.36617  0.07287  Biso   1.000  C
  C84      1.0000 0.36617  0.36617  0.19479  Biso   1.000  C
  C85      1.0000 0.07287  0.19479  0.36617  Biso   1.000  C
  C86      1.0000 0.19479  0.07287  0.36617  Biso   1.000  C
  C87      1.0000 0.36617  0.07287  0.19479  Biso   1.000  C
  C88      1.0000 0.36617  0.19479  0.07287  Biso   1.000  C
  C89      1.0000 0.07287  0.36617  0.36617  Biso   1.000  C
  C90      1.0000 0.19479  0.36617  0.36617  Biso   1.000  C
  C91      1.0000 0.36617  0.19479  0.36617  Biso   1.000  C
  C92      1.0000 0.36617  0.07287  0.36617  Biso   1.000  C
  C93      1.0000 0.07287  0.36617  0.19479  Biso   1.000  C
  C94      1.0000 0.19479  0.36617  0.07287  Biso   1.000  C
  C95      1.0000 0.63383  0.63383  0.92713  Biso   1.000  C
  C96      1.0000 0.63383  0.63383  0.80521  Biso   1.000  C
  C97      1.0000 0.80521  0.92713  0.63383  Biso   1.000  C
  C98      1.0000 0.92713  0.80521  0.63383  Biso   1.000  C
  C99      1.0000 0.92713  0.63383  0.80521  Biso   1.000  C
  C100     1.0000 0.80521  0.63383  0.92713  Biso   1.000  C
  C101     1.0000 0.63383  0.92713  0.63383  Biso   1.000  C
  C102     1.0000 0.63383  0.80521  0.63383  Biso   1.000  C
  C103     1.0000 0.80521  0.63383  0.63383  Biso   1.000  C
  C104     1.0000 0.92713  0.63383  0.63383  Biso   1.000  C
  C105     1.0000 0.63383  0.92713  0.80521  Biso   1.000  C
  C106     1.0000 0.63383  0.80521  0.92713  Biso   1.000  C
  O1       1.0000 0.47746  0.34544  0.67050  Biso   1.000  O
  O2       1.0000 0.65152  0.34544  0.49644  Biso   1.000  O
  O3       1.0000 0.47746  0.34544  0.49644  Biso   1.000  O
  O4       1.0000 0.47746  0.51950  0.49644  Biso   1.000  O
  O5       1.0000 0.06613  0.93193  0.90887  Biso   1.000  O
  O6       1.0000 0.89207  0.93193  0.08293  Biso   1.000  O
  O7       1.0000 0.06613  0.75787  0.08293  Biso   1.000  O
  O8       1.0000 0.06613  0.93193  0.08293  Biso   1.000  O
  O9       1.0000 0.61737  0.18373  0.85401  Biso   1.000  O
  O10      1.0000 0.83612  0.18373  0.63526  Biso   1.000  O
  O11      1.0000 0.31684  0.48426  0.33473  Biso   1.000  O
  O12      1.0000 0.31684  0.70301  0.33473  Biso   1.000  O
  O13      1.0000 0.31684  0.70301  0.63526  Biso   1.000  O
  O14      1.0000 0.31684  0.48426  0.85401  Biso   1.000  O
  O15      1.0000 0.61737  0.18373  0.33473  Biso   1.000  O
  O16      1.0000 0.83612  0.18373  0.33473  Biso   1.000  O
  O17      1.0000 0.83612  0.48426  0.33473  Biso   1.000  O
  O18      1.0000 0.61737  0.70301  0.33473  Biso   1.000  O
  O19      1.0000 0.31684  0.18373  0.63526  Biso   1.000  O
  O20      1.0000 0.31684  0.18373  0.85401  Biso   1.000  O
  O21      1.0000 0.92622  0.09363  0.72536  Biso   1.000  O
  O22      1.0000 0.70747  0.09363  0.94411  Biso   1.000  O
  O23      1.0000 0.22674  0.57436  0.24463  Biso   1.000  O
  O24      1.0000 0.22674  0.79311  0.24463  Biso   1.000  O
  O25      1.0000 0.22674  0.09363  0.94411  Biso   1.000  O
  O26      1.0000 0.22674  0.09363  0.72536  Biso   1.000  O
  O27      1.0000 0.92622  0.57436  0.24463  Biso   1.000  O
  O28      1.0000 0.70747  0.79311  0.24463  Biso   1.000  O
  O29      1.0000 0.70747  0.09363  0.24463  Biso   1.000  O
  O30      1.0000 0.92622  0.09363  0.24463  Biso   1.000  O
  O31      1.0000 0.22674  0.57436  0.94411  Biso   1.000  O
  O32      1.0000 0.22674  0.79311  0.72536  Biso   1.000  O
  O33      1.0000 0.68080  0.16549  0.82706  Biso   1.000  O
  O34      1.0000 0.80917  0.16549  0.69869  Biso   1.000  O
  O35      1.0000 0.29860  0.54769  0.31649  Biso   1.000  O
  O36      1.0000 0.29860  0.67606  0.31649  Biso   1.000  O
  O37      1.0000 0.29860  0.67606  0.69869  Biso   1.000  O
  O38      1.0000 0.29860  0.54769  0.82706  Biso   1.000  O
  O39      1.0000 0.68080  0.16549  0.31649  Biso   1.000  O
  O40      1.0000 0.80917  0.16549  0.31649  Biso   1.000  O
  O41      1.0000 0.80917  0.54769  0.31649  Biso   1.000  O
  O42      1.0000 0.68080  0.67606  0.31649  Biso   1.000  O
  O43      1.0000 0.29860  0.16549  0.69869  Biso   1.000  O
  O44      1.0000 0.29860  0.16549  0.82706  Biso   1.000  O
  O45      1.0000 0.86279  0.11187  0.75231  Biso   1.000  O
  O46      1.0000 0.73442  0.11187  0.88068  Biso   1.000  O
  O47      1.0000 0.24498  0.60131  0.26287  Biso   1.000  O
  O48      1.0000 0.24498  0.72968  0.26287  Biso   1.000  O
  O49      1.0000 0.24498  0.11187  0.88068  Biso   1.000  O
  O50      1.0000 0.24498  0.11187  0.75231  Biso   1.000  O
  O51      1.0000 0.86279  0.60131  0.26287  Biso   1.000  O
  O52      1.0000 0.73442  0.72968  0.26287  Biso   1.000  O
  O53      1.0000 0.73442  0.11187  0.26287  Biso   1.000  O
  O54      1.0000 0.86279  0.11187  0.26287  Biso   1.000  O
  O55      1.0000 0.24498  0.60131  0.88068  Biso   1.000  O
  O56      1.0000 0.24498  0.72968  0.75231  Biso   1.000  O
  O57      1.0000 0.65953  0.25040  0.67851  Biso   1.000  O
  O58      1.0000 0.71758  0.19235  0.73656  Biso   1.000  O
  O59      1.0000 0.38243  0.52751  0.40141  Biso   1.000  O
  O60      1.0000 0.32437  0.58556  0.34335  Biso   1.000  O
  O61      1.0000 0.38243  0.52751  0.67851  Biso   1.000  O
  O62      1.0000 0.32437  0.58556  0.73656  Biso   1.000  O
  O63      1.0000 0.65953  0.25040  0.40141  Biso   1.000  O
  O64      1.0000 0.71758  0.19235  0.34335  Biso   1.000  O
  O65      1.0000 0.65953  0.52751  0.40141  Biso   1.000  O
  O66      1.0000 0.71758  0.58556  0.34335  Biso   1.000  O
  O67      1.0000 0.38243  0.25040  0.67851  Biso   1.000  O
  O68      1.0000 0.32437  0.19235  0.73656  Biso   1.000  O
  O69      1.0000 0.88406  0.02696  0.90086  Biso   1.000  O
  O70      1.0000 0.82601  0.08501  0.84281  Biso   1.000  O
  O71      1.0000 0.16116  0.74986  0.17796  Biso   1.000  O
  O72      1.0000 0.21921  0.69181  0.23601  Biso   1.000  O
  O73      1.0000 0.16116  0.02696  0.90086  Biso   1.000  O
  O74      1.0000 0.21921  0.08501  0.84281  Biso   1.000  O
  O75      1.0000 0.88406  0.74986  0.17796  Biso   1.000  O
  O76      1.0000 0.82601  0.69181  0.23601  Biso   1.000  O
  O77      1.0000 0.88406  0.02696  0.17796  Biso   1.000  O
  O78      1.0000 0.82601  0.08501  0.23601  Biso   1.000  O
  O79      1.0000 0.16116  0.74986  0.90086  Biso   1.000  O
  O80      1.0000 0.21921  0.69181  0.84281  Biso   1.000  O
  O81      1.0000 0.52098  0.38895  0.53996  Biso   1.000  O
  O82      1.0000 0.02261  0.88841  0.03941  Biso   1.000  O
  O83      1.0000 0.57626  0.27271  0.71717  Biso   1.000  O
  O84      1.0000 0.69819  0.27271  0.59524  Biso   1.000  O
  O85      1.0000 0.40473  0.44423  0.42371  Biso   1.000  O
  O86      1.0000 0.40473  0.56617  0.42371  Biso   1.000  O
  O87      1.0000 0.40473  0.56617  0.59524  Biso   1.000  O
  O88      1.0000 0.40473  0.44423  0.71717  Biso   1.000  O
  O89      1.0000 0.57626  0.27271  0.42371  Biso   1.000  O
  O90      1.0000 0.69819  0.27271  0.42371  Biso   1.000  O
  O91      1.0000 0.69819  0.44423  0.42371  Biso   1.000  O
  O92      1.0000 0.57626  0.56617  0.42371  Biso   1.000  O
  O93      1.0000 0.40473  0.27271  0.59524  Biso   1.000  O
  O94      1.0000 0.40473  0.27271  0.71717  Biso   1.000  O
  O95      1.0000 0.96733  0.00466  0.86220  Biso   1.000  O
  O96      1.0000 0.84540  0.00466  0.98413  Biso   1.000  O
  O97      1.0000 0.13886  0.71120  0.15566  Biso   1.000  O
  O98      1.0000 0.13886  0.83313  0.15566  Biso   1.000  O
  O99      1.0000 0.13886  0.00466  0.98413  Biso   1.000  O
  O100     1.0000 0.13886  0.00466  0.86220  Biso   1.000  O
  O101     1.0000 0.96733  0.71120  0.15566  Biso   1.000  O
  O102     1.0000 0.84540  0.83313  0.15566  Biso   1.000  O
  O103     1.0000 0.84540  0.00466  0.15566  Biso   1.000  O
  O104     1.0000 0.96733  0.00466  0.15566  Biso   1.000  O
  O105     1.0000 0.13886  0.71120  0.98413  Biso   1.000  O
