data_image0
_cell_length_a       18.3017
_cell_length_b       18.3017
_cell_length_c       18.3017
_cell_angle_alpha    60
_cell_angle_beta     60
_cell_angle_gamma    60

_symmetry_space_group_name_H-M    "P 1"
_symmetry_int_tables_number       1

loop_
  _symmetry_equiv_pos_as_xyz
  'x, y, z'

loop_
  _atom_site_label
  _atom_site_occupancy
  _atom_site_fract_x
  _atom_site_fract_y
  _atom_site_fract_z
  _atom_site_thermal_displace_type
  _atom_site_B_iso_or_equiv
  _atom_site_type_symbol
  Zn1      1.0000 0.29342  0.29343  0.11972  Biso   1.000  Zn
  Zn2      1.0000 0.29343  0.29342  0.29343  Biso   1.000  Zn
  Zn3      1.0000 0.11972  0.29343  0.29342  Biso   1.000  Zn
  Zn4      1.0000 0.29343  0.11972  0.29343  Biso   1.000  Zn
  Zn5      1.0000 0.70657  0.70658  0.88028  Biso   1.000  Zn
  Zn6      1.0000 0.70657  0.70658  0.70657  Biso   1.000  Zn
  Zn7      1.0000 0.70658  0.88028  0.70657  Biso   1.000  Zn
  Zn8      1.0000 0.88029  0.70657  0.70657  Biso   1.000  Zn
  H1       1.0000 0.45510  0.45510  0.93470  Biso   1.000  H
  H2       1.0000 0.45510  0.45510  0.15510  Biso   1.000  H
  H3       1.0000 0.93470  0.15510  0.45510  Biso   1.000  H
  H4       1.0000 0.15510  0.93470  0.45510  Biso   1.000  H
  H5       1.0000 0.45510  0.93470  0.15510  Biso   1.000  H
  H6       1.0000 0.45510  0.15510  0.93470  Biso   1.000  H
  H7       1.0000 0.93470  0.45510  0.45510  Biso   1.000  H
  H8       1.0000 0.15510  0.45510  0.45510  Biso   1.000  H
  H9       1.0000 0.45510  0.15510  0.45510  Biso   1.000  H
  H10      1.0000 0.45510  0.93470  0.45510  Biso   1.000  H
  H11      1.0000 0.93470  0.45510  0.15510  Biso   1.000  H
  H12      1.0000 0.15510  0.45510  0.93470  Biso   1.000  H
  H13      1.0000 0.54490  0.54490  0.06530  Biso   1.000  H
  H14      1.0000 0.54490  0.54490  0.84490  Biso   1.000  H
  H15      1.0000 0.84490  0.06530  0.54490  Biso   1.000  H
  H16      1.0000 0.06530  0.84490  0.54490  Biso   1.000  H
  H17      1.0000 0.06530  0.54490  0.84490  Biso   1.000  H
  H18      1.0000 0.84490  0.54490  0.06530  Biso   1.000  H
  H19      1.0000 0.54490  0.06530  0.54490  Biso   1.000  H
  H20      1.0000 0.54490  0.84490  0.54490  Biso   1.000  H
  H21      1.0000 0.84490  0.54490  0.54490  Biso   1.000  H
  H22      1.0000 0.06530  0.54490  0.54490  Biso   1.000  H
  H23      1.0000 0.54490  0.06530  0.84490  Biso   1.000  H
  H24      1.0000 0.54490  0.84490  0.06530  Biso   1.000  H
  C1       1.0000 0.47334  0.47334  0.96156  Biso   1.000  C
  C2       1.0000 0.47334  0.47334  0.09176  Biso   1.000  C
  C3       1.0000 0.96156  0.09176  0.47334  Biso   1.000  C
  C4       1.0000 0.09176  0.96156  0.47334  Biso   1.000  C
  C5       1.0000 0.47334  0.96156  0.09176  Biso   1.000  C
  C6       1.0000 0.47334  0.09176  0.96156  Biso   1.000  C
  C7       1.0000 0.96156  0.47334  0.47334  Biso   1.000  C
  C8       1.0000 0.09176  0.47334  0.47334  Biso   1.000  C
  C9       1.0000 0.47334  0.09176  0.47334  Biso   1.000  C
  C10      1.0000 0.47334  0.96156  0.47334  Biso   1.000  C
  C11      1.0000 0.96156  0.47334  0.09176  Biso   1.000  C
  C12      1.0000 0.09176  0.47334  0.96156  Biso   1.000  C
  C13      1.0000 0.52666  0.52666  0.03844  Biso   1.000  C
  C14      1.0000 0.52666  0.52666  0.90824  Biso   1.000  C
  C15      1.0000 0.90824  0.03844  0.52666  Biso   1.000  C
  C16      1.0000 0.03844  0.90824  0.52666  Biso   1.000  C
  C17      1.0000 0.03844  0.52666  0.90824  Biso   1.000  C
  C18      1.0000 0.90824  0.52666  0.03844  Biso   1.000  C
  C19      1.0000 0.52666  0.03844  0.52666  Biso   1.000  C
  C20      1.0000 0.52666  0.90824  0.52666  Biso   1.000  C
  C21      1.0000 0.90824  0.52666  0.52666  Biso   1.000  C
  C22      1.0000 0.03844  0.52666  0.52666  Biso   1.000  C
  C23      1.0000 0.52666  0.03844  0.90824  Biso   1.000  C
  C24      1.0000 0.52666  0.90824  0.03844  Biso   1.000  C
  C25      1.0000 0.38843  0.38843  0.11157  Biso   1.000  C
  C26      1.0000 0.44642  0.44642  0.05358  Biso   1.000  C
  C27      1.0000 0.11157  0.11157  0.38843  Biso   1.000  C
  C28      1.0000 0.05358  0.05358  0.44642  Biso   1.000  C
  C29      1.0000 0.38843  0.11157  0.11157  Biso   1.000  C
  C30      1.0000 0.44642  0.05358  0.05358  Biso   1.000  C
  C31      1.0000 0.11157  0.38843  0.38843  Biso   1.000  C
  C32      1.0000 0.05358  0.44642  0.44642  Biso   1.000  C
  C33      1.0000 0.38843  0.11157  0.38843  Biso   1.000  C
  C34      1.0000 0.44642  0.05358  0.44642  Biso   1.000  C
  C35      1.0000 0.11157  0.38843  0.11157  Biso   1.000  C
  C36      1.0000 0.05358  0.44642  0.05358  Biso   1.000  C
  C37      1.0000 0.61157  0.61157  0.88843  Biso   1.000  C
  C38      1.0000 0.55358  0.55358  0.94642  Biso   1.000  C
  C39      1.0000 0.88843  0.88843  0.61157  Biso   1.000  C
  C40      1.0000 0.94642  0.94642  0.55358  Biso   1.000  C
  C41      1.0000 0.88843  0.61157  0.88843  Biso   1.000  C
  C42      1.0000 0.94642  0.55358  0.94642  Biso   1.000  C
  C43      1.0000 0.61157  0.88843  0.61157  Biso   1.000  C
  C44      1.0000 0.55358  0.94642  0.55358  Biso   1.000  C
  C45      1.0000 0.88843  0.61157  0.61157  Biso   1.000  C
  C46      1.0000 0.94642  0.55358  0.55358  Biso   1.000  C
  C47      1.0000 0.61157  0.88843  0.88843  Biso   1.000  C
  C48      1.0000 0.55358  0.94642  0.94642  Biso   1.000  C
  O1       1.0000 0.25000  0.25000  0.25000  Biso   1.000  O
  O2       1.0000 0.75000  0.75000  0.75000  Biso   1.000  O
  O3       1.0000 0.36609  0.36609  0.07295  Biso   1.000  O
  O4       1.0000 0.36609  0.36609  0.19487  Biso   1.000  O
  O5       1.0000 0.07295  0.19487  0.36609  Biso   1.000  O
  O6       1.0000 0.19487  0.07295  0.36609  Biso   1.000  O
  O7       1.0000 0.36609  0.07295  0.19487  Biso   1.000  O
  O8       1.0000 0.36609  0.19487  0.07295  Biso   1.000  O
  O9       1.0000 0.07295  0.36609  0.36609  Biso   1.000  O
  O10      1.0000 0.19487  0.36609  0.36609  Biso   1.000  O
  O11      1.0000 0.36609  0.19487  0.36609  Biso   1.000  O
  O12      1.0000 0.36609  0.07295  0.36609  Biso   1.000  O
  O13      1.0000 0.07295  0.36609  0.19487  Biso   1.000  O
  O14      1.0000 0.19487  0.36609  0.07295  Biso   1.000  O
  O15      1.0000 0.63391  0.63391  0.92705  Biso   1.000  O
  O16      1.0000 0.63391  0.63391  0.80513  Biso   1.000  O
  O17      1.0000 0.80513  0.92705  0.63391  Biso   1.000  O
  O18      1.0000 0.92705  0.80513  0.63391  Biso   1.000  O
  O19      1.0000 0.92705  0.63391  0.80513  Biso   1.000  O
  O20      1.0000 0.80513  0.63391  0.92705  Biso   1.000  O
  O21      1.0000 0.63391  0.92705  0.63391  Biso   1.000  O
  O22      1.0000 0.63391  0.80513  0.63391  Biso   1.000  O
  O23      1.0000 0.80513  0.63391  0.63391  Biso   1.000  O
  O24      1.0000 0.92705  0.63391  0.63391  Biso   1.000  O
  O25      1.0000 0.63391  0.92705  0.80513  Biso   1.000  O
  O26      1.0000 0.63391  0.80513  0.92705  Biso   1.000  O
  Zn9      1.0000 0.00550  0.83868  0.13384  Biso   1.000  Zn
  Zn10     1.0000 0.83319  0.01098  0.13384  Biso   1.000  Zn
  Zn11     1.0000 0.42468  0.43017  0.72532  Biso   1.000  Zn
  Zn12     1.0000 0.00550  0.01098  0.13384  Biso   1.000  Zn
  Zn13     1.0000 0.42468  0.60247  0.55302  Biso   1.000  Zn
  Zn14     1.0000 0.42468  0.43017  0.55302  Biso   1.000  Zn
  Zn15     1.0000 0.59698  0.43017  0.55302  Biso   1.000  Zn
  Zn16     1.0000 0.00550  0.01098  0.96154  Biso   1.000  Zn
  C49      1.0000 0.62892  0.75708  0.37360  Biso   1.000  C
  C50      1.0000 0.18492  0.68407  0.31327  Biso   1.000  C
  C51      1.0000 0.75159  0.25074  0.37360  Biso   1.000  C
  C52      1.0000 0.15643  0.77390  0.89676  Biso   1.000  C
  C53      1.0000 0.62892  0.25074  0.87994  Biso   1.000  C
  C54      1.0000 0.76841  0.77390  0.28477  Biso   1.000  C
  C55      1.0000 0.60359  0.60908  0.46026  Biso   1.000  C
  C56      1.0000 0.67858  0.80675  0.31327  Biso   1.000  C
  C57      1.0000 0.80126  0.68407  0.31327  Biso   1.000  C
  C58      1.0000 0.15643  0.16192  0.89676  Biso   1.000  C
  C59      1.0000 0.15643  0.77390  0.28477  Biso   1.000  C
  C60      1.0000 0.24525  0.75708  0.75726  Biso   1.000  C
  C61      1.0000 0.24525  0.63440  0.37360  Biso   1.000  C
  C62      1.0000 0.09826  0.83207  0.22660  Biso   1.000  C
  C63      1.0000 0.82659  0.10374  0.95493  Biso   1.000  C
  C64      1.0000 0.60359  0.33741  0.46026  Biso   1.000  C
  C65      1.0000 0.82659  0.10374  0.22660  Biso   1.000  C
  C66      1.0000 0.82659  0.83207  0.22660  Biso   1.000  C
  C67      1.0000 0.75159  0.63440  0.37360  Biso   1.000  C
  C68      1.0000 0.80126  0.19041  0.31327  Biso   1.000  C
  C69      1.0000 0.33192  0.60908  0.46026  Biso   1.000  C
  C70      1.0000 0.67858  0.19041  0.31327  Biso   1.000  C
  C71      1.0000 0.24525  0.63440  0.87994  Biso   1.000  C
  C72      1.0000 0.09826  0.10374  0.95493  Biso   1.000  C
  C73      1.0000 0.67858  0.19041  0.92960  Biso   1.000  C
  C74      1.0000 0.60359  0.33741  0.73193  Biso   1.000  C
  C75      1.0000 0.27375  0.66725  0.40209  Biso   1.000  C
  C76      1.0000 0.62892  0.25074  0.37360  Biso   1.000  C
  C77      1.0000 0.18492  0.19041  0.80692  Biso   1.000  C
  C78      1.0000 0.09826  0.83207  0.95493  Biso   1.000  C
  C79      1.0000 0.75159  0.25074  0.75726  Biso   1.000  C
  C80      1.0000 0.18492  0.19041  0.92960  Biso   1.000  C
  C81      1.0000 0.66176  0.27923  0.79011  Biso   1.000  C
  C82      1.0000 0.24525  0.75708  0.37360  Biso   1.000  C
  C83      1.0000 0.24525  0.25074  0.75726  Biso   1.000  C
  C84      1.0000 0.33192  0.60908  0.73193  Biso   1.000  C
  C85      1.0000 0.24525  0.25074  0.87994  Biso   1.000  C
  C86      1.0000 0.18492  0.68407  0.92960  Biso   1.000  C
  C87      1.0000 0.18492  0.80675  0.80692  Biso   1.000  C
  C88      1.0000 0.76841  0.16192  0.28477  Biso   1.000  C
  C89      1.0000 0.18492  0.80675  0.31327  Biso   1.000  C
  C90      1.0000 0.66176  0.27923  0.40209  Biso   1.000  C
  C91      1.0000 0.27375  0.66725  0.79011  Biso   1.000  C
  C92      1.0000 0.33192  0.33741  0.73193  Biso   1.000  C
  C93      1.0000 0.27375  0.27923  0.79011  Biso   1.000  C
  C94      1.0000 0.76841  0.16192  0.89676  Biso   1.000  C
  C95      1.0000 0.80126  0.19041  0.80692  Biso   1.000  C
  C96      1.0000 0.66176  0.66725  0.40209  Biso   1.000  C
  O27      1.0000 0.35260  0.65110  0.48094  Biso   1.000  O
  O28      1.0000 0.35260  0.65110  0.64855  Biso   1.000  O
  O29      1.0000 0.07758  0.79005  0.20592  Biso   1.000  O
  O30      1.0000 0.52021  0.35808  0.77396  Biso   1.000  O
  O31      1.0000 0.35260  0.35808  0.77396  Biso   1.000  O
  O32      1.0000 0.07758  0.79005  0.03831  Biso   1.000  O
  O33      1.0000 0.90997  0.08307  0.91290  Biso   1.000  O
  O34      1.0000 0.07758  0.08307  0.91290  Biso   1.000  O
  O35      1.0000 0.35260  0.52570  0.48094  Biso   1.000  O
  O36      1.0000 0.64562  0.52570  0.48094  Biso   1.000  O
  O37      1.0000 0.07758  0.91545  0.20592  Biso   1.000  O
  O38      1.0000 0.35260  0.35808  0.64855  Biso   1.000  O
  O39      1.0000 0.90997  0.08307  0.20592  Biso   1.000  O
  O40      1.0000 0.78456  0.91545  0.20592  Biso   1.000  O
  O41      1.0000 0.78456  0.08307  0.20592  Biso   1.000  O
  O42      1.0000 0.35260  0.52570  0.77396  Biso   1.000  O
  O43      1.0000 0.46775  0.47324  0.59610  Biso   1.000  O
  O44      1.0000 0.52021  0.65110  0.48094  Biso   1.000  O
  O45      1.0000 0.90997  0.79005  0.20592  Biso   1.000  O
  O46      1.0000 0.78456  0.08307  0.03831  Biso   1.000  O
  O47      1.0000 0.64562  0.35808  0.48094  Biso   1.000  O
  O48      1.0000 0.07758  0.08307  0.03831  Biso   1.000  O
  O49      1.0000 0.96242  0.96791  0.09076  Biso   1.000  O
  O50      1.0000 0.52021  0.35808  0.48094  Biso   1.000  O
  O51      1.0000 0.07758  0.91545  0.91290  Biso   1.000  O
  O52      1.0000 0.64562  0.35808  0.64855  Biso   1.000  O
  H25      1.0000 0.55295  0.78901  0.39562  Biso   1.000  H
  H26      1.0000 0.16514  0.64821  0.29348  Biso   1.000  H
  H27      1.0000 0.78352  0.27276  0.39562  Biso   1.000  H
  H28      1.0000 0.55295  0.27276  0.91186  Biso   1.000  H
  H29      1.0000 0.64666  0.88272  0.29124  Biso   1.000  H
  H30      1.0000 0.87670  0.64821  0.29348  Biso   1.000  H
  H31      1.0000 0.26728  0.78901  0.68129  Biso   1.000  H
  H32      1.0000 0.26728  0.55843  0.39562  Biso   1.000  H
  H33      1.0000 0.78352  0.55843  0.39562  Biso   1.000  H
  H34      1.0000 0.87723  0.16839  0.29124  Biso   1.000  H
  H35      1.0000 0.64666  0.16839  0.29124  Biso   1.000  H
  H36      1.0000 0.26728  0.55843  0.91186  Biso   1.000  H
  H37      1.0000 0.64666  0.16839  0.00557  Biso   1.000  H
  H38      1.0000 0.55295  0.27276  0.39562  Biso   1.000  H
  H39      1.0000 0.16514  0.17062  0.77106  Biso   1.000  H
  H40      1.0000 0.78746  0.27053  0.68182  Biso   1.000  H
  H41      1.0000 0.16514  0.17062  0.00504  Biso   1.000  H
  H42      1.0000 0.26504  0.79295  0.39338  Biso   1.000  H
  H43      1.0000 0.26728  0.27276  0.68129  Biso   1.000  H
  H44      1.0000 0.26728  0.27276  0.91186  Biso   1.000  H
  H45      1.0000 0.16514  0.64821  0.00504  Biso   1.000  H
  H46      1.0000 0.16514  0.88218  0.77106  Biso   1.000  H
  H47      1.0000 0.16514  0.88218  0.29348  Biso   1.000  H
