data_image0
_cell_length_a       18.2789
_cell_length_b       18.2789
_cell_length_c       18.2789
_cell_angle_alpha    60
_cell_angle_beta     60
_cell_angle_gamma    60

_symmetry_space_group_name_H-M    "P 1"
_symmetry_int_tables_number       1

loop_
  _symmetry_equiv_pos_as_xyz
  'x, y, z'

loop_
  _atom_site_label
  _atom_site_occupancy
  _atom_site_fract_x
  _atom_site_fract_y
  _atom_site_fract_z
  _atom_site_thermal_displace_type
  _atom_site_B_iso_or_equiv
  _atom_site_type_symbol
  C1       1.0000 0.29348  0.29347  0.11958  Biso   1.000  C
  C2       1.0000 0.29348  0.29347  0.29347  Biso   1.000  C
  C3       1.0000 0.11959  0.29347  0.29347  Biso   1.000  C
  C4       1.0000 0.29348  0.11958  0.29347  Biso   1.000  C
  C5       1.0000 0.70652  0.70653  0.88042  Biso   1.000  C
  C6       1.0000 0.70652  0.70653  0.70653  Biso   1.000  C
  C7       1.0000 0.70652  0.88042  0.70653  Biso   1.000  C
  C8       1.0000 0.88041  0.70653  0.70653  Biso   1.000  C
  C9       1.0000 0.45520  0.45520  0.93520  Biso   1.000  C
  C10      1.0000 0.45520  0.45520  0.15440  Biso   1.000  C
  C11      1.0000 0.93520  0.15440  0.45520  Biso   1.000  C
  C12      1.0000 0.15440  0.93520  0.45520  Biso   1.000  C
  C13      1.0000 0.45520  0.93520  0.15440  Biso   1.000  C
  C14      1.0000 0.45520  0.15440  0.93520  Biso   1.000  C
  C15      1.0000 0.93520  0.45520  0.45520  Biso   1.000  C
  C16      1.0000 0.15440  0.45520  0.45520  Biso   1.000  C
  C17      1.0000 0.45520  0.15440  0.45520  Biso   1.000  C
  C18      1.0000 0.45520  0.93520  0.45520  Biso   1.000  C
  C19      1.0000 0.93520  0.45520  0.15440  Biso   1.000  C
  C20      1.0000 0.15440  0.45520  0.93520  Biso   1.000  C
  C21      1.0000 0.54480  0.54480  0.06480  Biso   1.000  C
  C22      1.0000 0.54480  0.54480  0.84560  Biso   1.000  C
  C23      1.0000 0.84560  0.06480  0.54480  Biso   1.000  C
  C24      1.0000 0.06480  0.84560  0.54480  Biso   1.000  C
  C25      1.0000 0.06480  0.54480  0.84560  Biso   1.000  C
  C26      1.0000 0.84560  0.54480  0.06480  Biso   1.000  C
  C27      1.0000 0.54480  0.06480  0.54480  Biso   1.000  C
  C28      1.0000 0.54480  0.84560  0.54480  Biso   1.000  C
  C29      1.0000 0.84560  0.54480  0.54480  Biso   1.000  C
  C30      1.0000 0.06480  0.54480  0.54480  Biso   1.000  C
  C31      1.0000 0.54480  0.06480  0.84560  Biso   1.000  C
  C32      1.0000 0.54480  0.84560  0.06480  Biso   1.000  C
  C33      1.0000 0.47338  0.47338  0.96214  Biso   1.000  C
  C34      1.0000 0.47338  0.47338  0.09110  Biso   1.000  C
  C35      1.0000 0.96214  0.09110  0.47338  Biso   1.000  C
  C36      1.0000 0.09110  0.96214  0.47338  Biso   1.000  C
  C37      1.0000 0.47338  0.96214  0.09110  Biso   1.000  C
  C38      1.0000 0.47338  0.09110  0.96214  Biso   1.000  C
  C39      1.0000 0.96214  0.47338  0.47338  Biso   1.000  C
  C40      1.0000 0.09110  0.47338  0.47338  Biso   1.000  C
  C41      1.0000 0.47338  0.09110  0.47338  Biso   1.000  C
  C42      1.0000 0.47338  0.96214  0.47338  Biso   1.000  C
  C43      1.0000 0.96214  0.47338  0.09110  Biso   1.000  C
  C44      1.0000 0.09110  0.47338  0.96214  Biso   1.000  C
  C45      1.0000 0.52662  0.52662  0.03786  Biso   1.000  C
  C46      1.0000 0.52662  0.52662  0.90890  Biso   1.000  C
  C47      1.0000 0.90890  0.03786  0.52662  Biso   1.000  C
  C48      1.0000 0.03786  0.90890  0.52662  Biso   1.000  C
  C49      1.0000 0.03786  0.52662  0.90890  Biso   1.000  C
  C50      1.0000 0.90890  0.52662  0.03786  Biso   1.000  C
  C51      1.0000 0.52662  0.03786  0.52662  Biso   1.000  C
  C52      1.0000 0.52662  0.90890  0.52662  Biso   1.000  C
  C53      1.0000 0.90890  0.52662  0.52662  Biso   1.000  C
  C54      1.0000 0.03786  0.52662  0.52662  Biso   1.000  C
  C55      1.0000 0.52662  0.03786  0.90890  Biso   1.000  C
  C56      1.0000 0.52662  0.90890  0.03786  Biso   1.000  C
  C57      1.0000 0.38853  0.38853  0.11147  Biso   1.000  C
  C58      1.0000 0.44615  0.44615  0.05385  Biso   1.000  C
  C59      1.0000 0.11147  0.11147  0.38853  Biso   1.000  C
  C60      1.0000 0.05385  0.05385  0.44615  Biso   1.000  C
  C61      1.0000 0.38853  0.11147  0.11147  Biso   1.000  C
  C62      1.0000 0.44615  0.05385  0.05385  Biso   1.000  C
  C63      1.0000 0.11147  0.38853  0.38853  Biso   1.000  C
  C64      1.0000 0.05385  0.44615  0.44615  Biso   1.000  C
  C65      1.0000 0.38853  0.11147  0.38853  Biso   1.000  C
  C66      1.0000 0.44615  0.05385  0.44615  Biso   1.000  C
  C67      1.0000 0.11147  0.38853  0.11147  Biso   1.000  C
  C68      1.0000 0.05385  0.44615  0.05385  Biso   1.000  C
  C69      1.0000 0.61147  0.61147  0.88853  Biso   1.000  C
  C70      1.0000 0.55385  0.55385  0.94615  Biso   1.000  C
  C71      1.0000 0.88853  0.88853  0.61147  Biso   1.000  C
  C72      1.0000 0.94615  0.94615  0.55385  Biso   1.000  C
  C73      1.0000 0.88853  0.61147  0.88853  Biso   1.000  C
  C74      1.0000 0.94615  0.55385  0.94615  Biso   1.000  C
  C75      1.0000 0.61147  0.88853  0.61147  Biso   1.000  C
  C76      1.0000 0.55385  0.94615  0.55385  Biso   1.000  C
  C77      1.0000 0.88853  0.61147  0.61147  Biso   1.000  C
  C78      1.0000 0.94615  0.55385  0.55385  Biso   1.000  C
  C79      1.0000 0.61147  0.88853  0.88853  Biso   1.000  C
  C80      1.0000 0.55385  0.94615  0.94615  Biso   1.000  C
  C81      1.0000 0.25000  0.25000  0.25000  Biso   1.000  C
  C82      1.0000 0.75000  0.75000  0.75000  Biso   1.000  C
  C83      1.0000 0.36624  0.36624  0.07286  Biso   1.000  C
  C84      1.0000 0.36624  0.36624  0.19466  Biso   1.000  C
  C85      1.0000 0.07286  0.19466  0.36624  Biso   1.000  C
  C86      1.0000 0.19466  0.07286  0.36624  Biso   1.000  C
  C87      1.0000 0.36624  0.07286  0.19466  Biso   1.000  C
  C88      1.0000 0.36624  0.19466  0.07286  Biso   1.000  C
  C89      1.0000 0.07286  0.36624  0.36624  Biso   1.000  C
  C90      1.0000 0.19466  0.36624  0.36624  Biso   1.000  C
  C91      1.0000 0.36624  0.19466  0.36624  Biso   1.000  C
  C92      1.0000 0.36624  0.07286  0.36624  Biso   1.000  C
  C93      1.0000 0.07286  0.36624  0.19466  Biso   1.000  C
  C94      1.0000 0.19466  0.36624  0.07286  Biso   1.000  C
  C95      1.0000 0.63376  0.63376  0.92714  Biso   1.000  C
  C96      1.0000 0.63376  0.63376  0.80534  Biso   1.000  C
  C97      1.0000 0.80534  0.92714  0.63376  Biso   1.000  C
  C98      1.0000 0.92714  0.80534  0.63376  Biso   1.000  C
  C99      1.0000 0.92714  0.63376  0.80534  Biso   1.000  C
  C100     1.0000 0.80534  0.63376  0.92714  Biso   1.000  C
  C101     1.0000 0.63376  0.92714  0.63376  Biso   1.000  C
  C102     1.0000 0.63376  0.80534  0.63376  Biso   1.000  C
  C103     1.0000 0.80534  0.63376  0.63376  Biso   1.000  C
  C104     1.0000 0.92714  0.63376  0.63376  Biso   1.000  C
  C105     1.0000 0.63376  0.92714  0.80534  Biso   1.000  C
  C106     1.0000 0.63376  0.80534  0.92714  Biso   1.000  C
  O1       1.0000 0.00000  0.00000  0.00000  Biso   1.000  O
  O2       1.0000 0.57193  0.41824  0.59159  Biso   1.000  O
  O3       1.0000 0.57193  0.59173  0.59159  Biso   1.000  O
  O4       1.0000 0.00000  0.17350  0.00000  Biso   1.000  O
  O5       1.0000 0.99996  0.99992  0.17369  Biso   1.000  O
  O6       1.0000 0.17327  0.00018  0.99987  Biso   1.000  O
  O7       1.0000 0.57197  0.59181  0.41790  Biso   1.000  O
  O8       1.0000 0.39866  0.59156  0.59172  Biso   1.000  O
  O9       1.0000 0.82595  0.84342  0.36639  Biso   1.000  O
  O10      1.0000 0.82500  0.84497  0.13627  Biso   1.000  O
  O11      1.0000 0.82211  0.13632  0.84581  Biso   1.000  O
  O12      1.0000 0.74598  0.45400  0.22520  Biso   1.000  O
  O13      1.0000 0.74693  0.22447  0.45532  Biso   1.000  O
  O14      1.0000 0.74982  0.22248  0.74578  Biso   1.000  O
  O15      1.0000 0.74598  0.74831  0.22520  Biso   1.000  O
  O16      1.0000 0.74693  0.74677  0.45532  Biso   1.000  O
  O17      1.0000 0.74982  0.45542  0.74578  Biso   1.000  O
  O18      1.0000 0.82595  0.13773  0.36639  Biso   1.000  O
  O19      1.0000 0.82500  0.36726  0.13627  Biso   1.000  O
  O20      1.0000 0.82211  0.36926  0.84581  Biso   1.000  O
  O21      1.0000 0.91287  0.91191  0.17816  Biso   1.000  O
  O22      1.0000 0.84890  0.84744  0.23738  Biso   1.000  O
  O23      1.0000 0.81030  0.82203  0.34005  Biso   1.000  O
  O24      1.0000 0.81035  0.82347  0.19945  Biso   1.000  O
  O25      1.0000 0.17418  0.91251  0.91265  Biso   1.000  O
  O26      1.0000 0.80874  0.19940  0.82214  Biso   1.000  O
  O27      1.0000 0.65906  0.42117  0.41343  Biso   1.000  O
  O28      1.0000 0.72303  0.35195  0.35421  Biso   1.000  O
  O29      1.0000 0.76163  0.39062  0.25154  Biso   1.000  O
  O30      1.0000 0.76158  0.25151  0.39214  Biso   1.000  O
  O31      1.0000 0.39774  0.41759  0.67894  Biso   1.000  O
  O32      1.0000 0.76319  0.24852  0.76945  Biso   1.000  O
  O33      1.0000 0.65906  0.67983  0.41343  Biso   1.000  O
  O34      1.0000 0.72303  0.74430  0.35421  Biso   1.000  O
  O35      1.0000 0.76163  0.76970  0.25154  Biso   1.000  O
  O36      1.0000 0.76158  0.76826  0.39214  Biso   1.000  O
  O37      1.0000 0.39774  0.67922  0.67894  Biso   1.000  O
  O38      1.0000 0.76319  0.39233  0.76945  Biso   1.000  O
  O39      1.0000 0.91287  0.17056  0.17816  Biso   1.000  O
  O40      1.0000 0.84890  0.23978  0.23738  Biso   1.000  O
  O41      1.0000 0.81030  0.20111  0.34005  Biso   1.000  O
  O42      1.0000 0.81035  0.34022  0.19945  Biso   1.000  O
  O43      1.0000 0.17418  0.17414  0.91265  Biso   1.000  O
  O44      1.0000 0.80874  0.34321  0.82214  Biso   1.000  O
  O45      1.0000 0.17222  0.91161  0.17806  Biso   1.000  O
  O46      1.0000 0.90949  0.17523  0.91354  Biso   1.000  O
  O47      1.0000 0.84868  0.24000  0.84482  Biso   1.000  O
  O48      1.0000 0.39971  0.68013  0.41353  Biso   1.000  O
  O49      1.0000 0.66244  0.41650  0.67805  Biso   1.000  O
  O50      1.0000 0.72325  0.35173  0.74677  Biso   1.000  O
  O51      1.0000 0.93030  0.92814  0.22193  Biso   1.000  O
  O52      1.0000 0.92831  0.92736  0.09557  Biso   1.000  O
  O53      1.0000 0.22330  0.92796  0.92889  Biso   1.000  O
  O54      1.0000 0.09328  0.92776  0.92880  Biso   1.000  O
  O55      1.0000 0.92909  0.09383  0.92721  Biso   1.000  O
  O56      1.0000 0.64163  0.49861  0.36966  Biso   1.000  O
  O57      1.0000 0.64362  0.36947  0.49603  Biso   1.000  O
  O58      1.0000 0.34863  0.49840  0.66270  Biso   1.000  O
  O59      1.0000 0.47865  0.36808  0.66280  Biso   1.000  O
  O60      1.0000 0.64284  0.36838  0.66438  Biso   1.000  O
  O61      1.0000 0.64163  0.66359  0.36966  Biso   1.000  O
  O62      1.0000 0.64362  0.66438  0.49603  Biso   1.000  O
  O63      1.0000 0.34863  0.66377  0.66270  Biso   1.000  O
  O64      1.0000 0.47865  0.66397  0.66280  Biso   1.000  O
  O65      1.0000 0.64284  0.49790  0.66438  Biso   1.000  O
  O66      1.0000 0.93030  0.09312  0.22193  Biso   1.000  O
  O67      1.0000 0.92831  0.22226  0.09557  Biso   1.000  O
  O68      1.0000 0.22330  0.09334  0.92889  Biso   1.000  O
  O69      1.0000 0.09328  0.22366  0.92880  Biso   1.000  O
  O70      1.0000 0.92909  0.22336  0.92721  Biso   1.000  O
  O71      1.0000 0.04189  0.04471  0.04219  Biso   1.000  O
  O72      1.0000 0.09359  0.92824  0.22342  Biso   1.000  O
  O73      1.0000 0.22301  0.92835  0.09378  Biso   1.000  O
  O74      1.0000 0.53004  0.54703  0.54940  Biso   1.000  O
  O75      1.0000 0.47834  0.66349  0.36818  Biso   1.000  O
