data_image0
_cell_length_a       18.2359
_cell_length_b       18.2359
_cell_length_c       18.2359
_cell_angle_alpha    60
_cell_angle_beta     60
_cell_angle_gamma    60

_symmetry_space_group_name_H-M    "P 1"
_symmetry_int_tables_number       1

loop_
  _symmetry_equiv_pos_as_xyz
  'x, y, z'

loop_
  _atom_site_label
  _atom_site_occupancy
  _atom_site_fract_x
  _atom_site_fract_y
  _atom_site_fract_z
  _atom_site_thermal_displace_type
  _atom_site_B_iso_or_equiv
  _atom_site_type_symbol
  Zn1      1.0000 0.29356  0.29357  0.11930  Biso   1.000  Zn
  Zn2      1.0000 0.29356  0.29357  0.29357  Biso   1.000  Zn
  Zn3      1.0000 0.11929  0.29357  0.29357  Biso   1.000  Zn
  Zn4      1.0000 0.29356  0.11930  0.29357  Biso   1.000  Zn
  Zn5      1.0000 0.70644  0.70643  0.88070  Biso   1.000  Zn
  Zn6      1.0000 0.70644  0.70643  0.70643  Biso   1.000  Zn
  Zn7      1.0000 0.70644  0.88070  0.70643  Biso   1.000  Zn
  Zn8      1.0000 0.88071  0.70643  0.70643  Biso   1.000  Zn
  H1       1.0000 0.45600  0.45600  0.93640  Biso   1.000  H
  H2       1.0000 0.45600  0.45600  0.15160  Biso   1.000  H
  H3       1.0000 0.93640  0.15160  0.45600  Biso   1.000  H
  H4       1.0000 0.15160  0.93640  0.45600  Biso   1.000  H
  H5       1.0000 0.45600  0.93640  0.15160  Biso   1.000  H
  H6       1.0000 0.45600  0.15160  0.93640  Biso   1.000  H
  H7       1.0000 0.93640  0.45600  0.45600  Biso   1.000  H
  H8       1.0000 0.15160  0.45600  0.45600  Biso   1.000  H
  H9       1.0000 0.45600  0.15160  0.45600  Biso   1.000  H
  H10      1.0000 0.45600  0.93640  0.45600  Biso   1.000  H
  H11      1.0000 0.93640  0.45600  0.15160  Biso   1.000  H
  H12      1.0000 0.15160  0.45600  0.93640  Biso   1.000  H
  H13      1.0000 0.54400  0.54400  0.06360  Biso   1.000  H
  H14      1.0000 0.54400  0.54400  0.84840  Biso   1.000  H
  H15      1.0000 0.84840  0.06360  0.54400  Biso   1.000  H
  H16      1.0000 0.06360  0.84840  0.54400  Biso   1.000  H
  H17      1.0000 0.06360  0.54400  0.84840  Biso   1.000  H
  H18      1.0000 0.84840  0.54400  0.06360  Biso   1.000  H
  H19      1.0000 0.54400  0.06360  0.54400  Biso   1.000  H
  H20      1.0000 0.54400  0.84840  0.54400  Biso   1.000  H
  H21      1.0000 0.84840  0.54400  0.54400  Biso   1.000  H
  H22      1.0000 0.06360  0.54400  0.54400  Biso   1.000  H
  H23      1.0000 0.54400  0.06360  0.84840  Biso   1.000  H
  H24      1.0000 0.54400  0.84840  0.06360  Biso   1.000  H
  C1       1.0000 0.47360  0.47360  0.96320  Biso   1.000  C
  C2       1.0000 0.47360  0.47360  0.08960  Biso   1.000  C
  C3       1.0000 0.96320  0.08960  0.47360  Biso   1.000  C
  C4       1.0000 0.08960  0.96320  0.47360  Biso   1.000  C
  C5       1.0000 0.47360  0.96320  0.08960  Biso   1.000  C
  C6       1.0000 0.47360  0.08960  0.96320  Biso   1.000  C
  C7       1.0000 0.96320  0.47360  0.47360  Biso   1.000  C
  C8       1.0000 0.08960  0.47360  0.47360  Biso   1.000  C
  C9       1.0000 0.47360  0.08960  0.47360  Biso   1.000  C
  C10      1.0000 0.47360  0.96320  0.47360  Biso   1.000  C
  C11      1.0000 0.96320  0.47360  0.08960  Biso   1.000  C
  C12      1.0000 0.08960  0.47360  0.96320  Biso   1.000  C
  C13      1.0000 0.52640  0.52640  0.03680  Biso   1.000  C
  C14      1.0000 0.52640  0.52640  0.91040  Biso   1.000  C
  C15      1.0000 0.91040  0.03680  0.52640  Biso   1.000  C
  C16      1.0000 0.03680  0.91040  0.52640  Biso   1.000  C
  C17      1.0000 0.03680  0.52640  0.91040  Biso   1.000  C
  C18      1.0000 0.91040  0.52640  0.03680  Biso   1.000  C
  C19      1.0000 0.52640  0.03680  0.52640  Biso   1.000  C
  C20      1.0000 0.52640  0.91040  0.52640  Biso   1.000  C
  C21      1.0000 0.91040  0.52640  0.52640  Biso   1.000  C
  C22      1.0000 0.03680  0.52640  0.52640  Biso   1.000  C
  C23      1.0000 0.52640  0.03680  0.91040  Biso   1.000  C
  C24      1.0000 0.52640  0.91040  0.03680  Biso   1.000  C
  C25      1.0000 0.38860  0.38860  0.11140  Biso   1.000  C
  C26      1.0000 0.44630  0.44630  0.05370  Biso   1.000  C
  C27      1.0000 0.11140  0.11140  0.38860  Biso   1.000  C
  C28      1.0000 0.05370  0.05370  0.44630  Biso   1.000  C
  C29      1.0000 0.38860  0.11140  0.11140  Biso   1.000  C
  C30      1.0000 0.44630  0.05370  0.05370  Biso   1.000  C
  C31      1.0000 0.11140  0.38860  0.38860  Biso   1.000  C
  C32      1.0000 0.05370  0.44630  0.44630  Biso   1.000  C
  C33      1.0000 0.38860  0.11140  0.38860  Biso   1.000  C
  C34      1.0000 0.44630  0.05370  0.44630  Biso   1.000  C
  C35      1.0000 0.11140  0.38860  0.11140  Biso   1.000  C
  C36      1.0000 0.05370  0.44630  0.05370  Biso   1.000  C
  C37      1.0000 0.61140  0.61140  0.88860  Biso   1.000  C
  C38      1.0000 0.55370  0.55370  0.94630  Biso   1.000  C
  C39      1.0000 0.88860  0.88860  0.61140  Biso   1.000  C
  C40      1.0000 0.94630  0.94630  0.55370  Biso   1.000  C
  C41      1.0000 0.88860  0.61140  0.88860  Biso   1.000  C
  C42      1.0000 0.94630  0.55370  0.94630  Biso   1.000  C
  C43      1.0000 0.61140  0.88860  0.61140  Biso   1.000  C
  C44      1.0000 0.55370  0.94630  0.55370  Biso   1.000  C
  C45      1.0000 0.88860  0.61140  0.61140  Biso   1.000  C
  C46      1.0000 0.94630  0.55370  0.55370  Biso   1.000  C
  C47      1.0000 0.61140  0.88860  0.88860  Biso   1.000  C
  C48      1.0000 0.55370  0.94630  0.94630  Biso   1.000  C
  O1       1.0000 0.25000  0.25000  0.25000  Biso   1.000  O
  O2       1.0000 0.75000  0.75000  0.75000  Biso   1.000  O
  O3       1.0000 0.36605  0.36605  0.07323  Biso   1.000  O
  O4       1.0000 0.36605  0.36605  0.19467  Biso   1.000  O
  O5       1.0000 0.07323  0.19467  0.36605  Biso   1.000  O
  O6       1.0000 0.19467  0.07323  0.36605  Biso   1.000  O
  O7       1.0000 0.36605  0.07323  0.19467  Biso   1.000  O
  O8       1.0000 0.36605  0.19467  0.07323  Biso   1.000  O
  O9       1.0000 0.07323  0.36605  0.36605  Biso   1.000  O
  O10      1.0000 0.19467  0.36605  0.36605  Biso   1.000  O
  O11      1.0000 0.36605  0.19467  0.36605  Biso   1.000  O
  O12      1.0000 0.36605  0.07323  0.36605  Biso   1.000  O
  O13      1.0000 0.07323  0.36605  0.19467  Biso   1.000  O
  O14      1.0000 0.19467  0.36605  0.07323  Biso   1.000  O
  O15      1.0000 0.63395  0.63395  0.92677  Biso   1.000  O
  O16      1.0000 0.63395  0.63395  0.80533  Biso   1.000  O
  O17      1.0000 0.80533  0.92677  0.63395  Biso   1.000  O
  O18      1.0000 0.92677  0.80533  0.63395  Biso   1.000  O
  O19      1.0000 0.92677  0.63395  0.80533  Biso   1.000  O
  O20      1.0000 0.80533  0.63395  0.92677  Biso   1.000  O
  O21      1.0000 0.63395  0.92677  0.63395  Biso   1.000  O
  O22      1.0000 0.63395  0.80533  0.63395  Biso   1.000  O
  O23      1.0000 0.80533  0.63395  0.63395  Biso   1.000  O
  O24      1.0000 0.92677  0.63395  0.63395  Biso   1.000  O
  O25      1.0000 0.63395  0.92677  0.80533  Biso   1.000  O
  O26      1.0000 0.63395  0.80533  0.92677  Biso   1.000  O
  Zn9      1.0000 0.00552  0.84171  0.13432  Biso   1.000  Zn
  Zn10     1.0000 0.83259  0.01463  0.13432  Biso   1.000  Zn
  Zn11     1.0000 0.42260  0.43172  0.72433  Biso   1.000  Zn
  Zn12     1.0000 0.00552  0.01463  0.13432  Biso   1.000  Zn
  Zn13     1.0000 0.42260  0.60464  0.55141  Biso   1.000  Zn
  Zn14     1.0000 0.42260  0.43172  0.55141  Biso   1.000  Zn
  Zn15     1.0000 0.59553  0.43172  0.55141  Biso   1.000  Zn
  Zn16     1.0000 0.00552  0.01463  0.96140  Biso   1.000  Zn
  C49      1.0000 0.62758  0.75981  0.37134  Biso   1.000  C
  C50      1.0000 0.18559  0.68654  0.31440  Biso   1.000  C
  C51      1.0000 0.75070  0.25165  0.37134  Biso   1.000  C
  C52      1.0000 0.15699  0.77669  0.89638  Biso   1.000  C
  C53      1.0000 0.62758  0.25165  0.87950  Biso   1.000  C
  C54      1.0000 0.76758  0.77669  0.28580  Biso   1.000  C
  C55      1.0000 0.60216  0.61128  0.45831  Biso   1.000  C
  C56      1.0000 0.67742  0.80966  0.31440  Biso   1.000  C
  C57      1.0000 0.80054  0.68654  0.31440  Biso   1.000  C
  C58      1.0000 0.15699  0.16611  0.89638  Biso   1.000  C
  C59      1.0000 0.15699  0.77669  0.28580  Biso   1.000  C
  C60      1.0000 0.24253  0.75981  0.75638  Biso   1.000  C
  C61      1.0000 0.24253  0.63669  0.37134  Biso   1.000  C
  C62      1.0000 0.09861  0.83508  0.22742  Biso   1.000  C
  C63      1.0000 0.82596  0.10773  0.95477  Biso   1.000  C
  C64      1.0000 0.60216  0.33862  0.45831  Biso   1.000  C
  C65      1.0000 0.82596  0.10773  0.22742  Biso   1.000  C
  C66      1.0000 0.82596  0.83508  0.22742  Biso   1.000  C
  C67      1.0000 0.75070  0.63669  0.37134  Biso   1.000  C
  C68      1.0000 0.80054  0.19471  0.31440  Biso   1.000  C
  C69      1.0000 0.32951  0.61128  0.45831  Biso   1.000  C
  C70      1.0000 0.67742  0.19471  0.31440  Biso   1.000  C
  C71      1.0000 0.24253  0.63669  0.87950  Biso   1.000  C
  C72      1.0000 0.09861  0.10773  0.95477  Biso   1.000  C
  C73      1.0000 0.67742  0.19471  0.92935  Biso   1.000  C
  C74      1.0000 0.60216  0.33862  0.73097  Biso   1.000  C
  C75      1.0000 0.27112  0.66966  0.39993  Biso   1.000  C
  C76      1.0000 0.62758  0.25165  0.37134  Biso   1.000  C
  C77      1.0000 0.18559  0.19471  0.80623  Biso   1.000  C
  C78      1.0000 0.09861  0.83508  0.95477  Biso   1.000  C
  C79      1.0000 0.75070  0.25165  0.75638  Biso   1.000  C
  C80      1.0000 0.18559  0.19471  0.92935  Biso   1.000  C
  C81      1.0000 0.66054  0.28024  0.78935  Biso   1.000  C
  C82      1.0000 0.24253  0.75981  0.37134  Biso   1.000  C
  C83      1.0000 0.24253  0.25165  0.75638  Biso   1.000  C
  C84      1.0000 0.32951  0.61128  0.73097  Biso   1.000  C
  C85      1.0000 0.24253  0.25165  0.87950  Biso   1.000  C
  C86      1.0000 0.18559  0.68654  0.92935  Biso   1.000  C
  C87      1.0000 0.18559  0.80966  0.80623  Biso   1.000  C
  C88      1.0000 0.76758  0.16611  0.28580  Biso   1.000  C
  C89      1.0000 0.18559  0.80966  0.31440  Biso   1.000  C
  C90      1.0000 0.66054  0.28024  0.39993  Biso   1.000  C
  C91      1.0000 0.27113  0.66966  0.78935  Biso   1.000  C
  C92      1.0000 0.32951  0.33862  0.73097  Biso   1.000  C
  C93      1.0000 0.27112  0.28024  0.78935  Biso   1.000  C
  C94      1.0000 0.76758  0.16611  0.89638  Biso   1.000  C
  C95      1.0000 0.80054  0.19471  0.80623  Biso   1.000  C
  C96      1.0000 0.66054  0.66966  0.39993  Biso   1.000  C
  O27      1.0000 0.35026  0.65345  0.47907  Biso   1.000  O
  O28      1.0000 0.35026  0.65345  0.64728  Biso   1.000  O
  O29      1.0000 0.07786  0.79290  0.20667  Biso   1.000  O
  O30      1.0000 0.51848  0.35938  0.77314  Biso   1.000  O
  O31      1.0000 0.35026  0.35938  0.77314  Biso   1.000  O
  O32      1.0000 0.07786  0.79290  0.03845  Biso   1.000  O
  O33      1.0000 0.90964  0.08698  0.91259  Biso   1.000  O
  O34      1.0000 0.07786  0.08698  0.91259  Biso   1.000  O
  O35      1.0000 0.35026  0.52759  0.47907  Biso   1.000  O
  O36      1.0000 0.64434  0.52759  0.47907  Biso   1.000  O
  O37      1.0000 0.07786  0.91876  0.20667  Biso   1.000  O
  O38      1.0000 0.35026  0.35938  0.64728  Biso   1.000  O
  O39      1.0000 0.90964  0.08698  0.20667  Biso   1.000  O
  O40      1.0000 0.78378  0.91876  0.20667  Biso   1.000  O
  O41      1.0000 0.78378  0.08698  0.20667  Biso   1.000  O
  O42      1.0000 0.35026  0.52759  0.77314  Biso   1.000  O
  O43      1.0000 0.46583  0.47495  0.59464  Biso   1.000  O
  O44      1.0000 0.51848  0.65345  0.47907  Biso   1.000  O
  O45      1.0000 0.90964  0.79290  0.20667  Biso   1.000  O
  O46      1.0000 0.78378  0.08698  0.03845  Biso   1.000  O
  O47      1.0000 0.64434  0.35938  0.47907  Biso   1.000  O
  O48      1.0000 0.07786  0.08698  0.03845  Biso   1.000  O
  O49      1.0000 0.96229  0.97140  0.09109  Biso   1.000  O
  O50      1.0000 0.51848  0.35938  0.47907  Biso   1.000  O
  O51      1.0000 0.07786  0.91876  0.91259  Biso   1.000  O
  O52      1.0000 0.64434  0.35938  0.64728  Biso   1.000  O
  H25      1.0000 0.55133  0.79185  0.39344  Biso   1.000  H
  H26      1.0000 0.16573  0.65054  0.29454  Biso   1.000  H
  H27      1.0000 0.78274  0.27375  0.39344  Biso   1.000  H
  H28      1.0000 0.55133  0.27375  0.91154  Biso   1.000  H
  H29      1.0000 0.64538  0.88590  0.29229  Biso   1.000  H
  H30      1.0000 0.87625  0.65054  0.29454  Biso   1.000  H
  H31      1.0000 0.26463  0.79185  0.68014  Biso   1.000  H
  H32      1.0000 0.26463  0.56045  0.39344  Biso   1.000  H
  H33      1.0000 0.78274  0.56045  0.39344  Biso   1.000  H
  H34      1.0000 0.87679  0.17260  0.29229  Biso   1.000  H
  H35      1.0000 0.64538  0.17260  0.29229  Biso   1.000  H
  H36      1.0000 0.26463  0.56045  0.91154  Biso   1.000  H
  H37      1.0000 0.64538  0.17260  0.00559  Biso   1.000  H
  H38      1.0000 0.55133  0.27375  0.39344  Biso   1.000  H
  H39      1.0000 0.16573  0.17485  0.77023  Biso   1.000  H
  H40      1.0000 0.78669  0.27150  0.68067  Biso   1.000  H
  H41      1.0000 0.16573  0.17485  0.00506  Biso   1.000  H
  H42      1.0000 0.26239  0.79581  0.39119  Biso   1.000  H
  H43      1.0000 0.26463  0.27375  0.68014  Biso   1.000  H
  H44      1.0000 0.26463  0.27375  0.91154  Biso   1.000  H
  H45      1.0000 0.16573  0.65054  0.00506  Biso   1.000  H
  H46      1.0000 0.16573  0.88537  0.77023  Biso   1.000  H
  H47      1.0000 0.16573  0.88537  0.29454  Biso   1.000  H
