data_image0
_cell_length_a       18.2422
_cell_length_b       18.2422
_cell_length_c       18.2422
_cell_angle_alpha    60
_cell_angle_beta     60
_cell_angle_gamma    60

_symmetry_space_group_name_H-M    "P 1"
_symmetry_int_tables_number       1

loop_
  _symmetry_equiv_pos_as_xyz
  'x, y, z'

loop_
  _atom_site_label
  _atom_site_occupancy
  _atom_site_fract_x
  _atom_site_fract_y
  _atom_site_fract_z
  _atom_site_thermal_displace_type
  _atom_site_B_iso_or_equiv
  _atom_site_type_symbol
  C1       1.0000 0.29356  0.29355  0.11934  Biso   1.000  C
  C2       1.0000 0.29356  0.29355  0.29355  Biso   1.000  C
  C3       1.0000 0.11935  0.29355  0.29355  Biso   1.000  C
  C4       1.0000 0.29356  0.11934  0.29355  Biso   1.000  C
  C5       1.0000 0.70644  0.70645  0.88066  Biso   1.000  C
  C6       1.0000 0.70644  0.70645  0.70645  Biso   1.000  C
  C7       1.0000 0.70644  0.88066  0.70645  Biso   1.000  C
  C8       1.0000 0.88065  0.70645  0.70645  Biso   1.000  C
  C9       1.0000 0.45610  0.45610  0.93590  Biso   1.000  C
  C10      1.0000 0.45610  0.45610  0.15190  Biso   1.000  C
  C11      1.0000 0.93590  0.15190  0.45610  Biso   1.000  C
  C12      1.0000 0.15190  0.93590  0.45610  Biso   1.000  C
  C13      1.0000 0.45610  0.93590  0.15190  Biso   1.000  C
  C14      1.0000 0.45610  0.15190  0.93590  Biso   1.000  C
  C15      1.0000 0.93590  0.45610  0.45610  Biso   1.000  C
  C16      1.0000 0.15190  0.45610  0.45610  Biso   1.000  C
  C17      1.0000 0.45610  0.15190  0.45610  Biso   1.000  C
  C18      1.0000 0.45610  0.93590  0.45610  Biso   1.000  C
  C19      1.0000 0.93590  0.45610  0.15190  Biso   1.000  C
  C20      1.0000 0.15190  0.45610  0.93590  Biso   1.000  C
  C21      1.0000 0.54390  0.54390  0.06410  Biso   1.000  C
  C22      1.0000 0.54390  0.54390  0.84810  Biso   1.000  C
  C23      1.0000 0.84810  0.06410  0.54390  Biso   1.000  C
  C24      1.0000 0.06410  0.84810  0.54390  Biso   1.000  C
  C25      1.0000 0.06410  0.54390  0.84810  Biso   1.000  C
  C26      1.0000 0.84810  0.54390  0.06410  Biso   1.000  C
  C27      1.0000 0.54390  0.06410  0.54390  Biso   1.000  C
  C28      1.0000 0.54390  0.84810  0.54390  Biso   1.000  C
  C29      1.0000 0.84810  0.54390  0.54390  Biso   1.000  C
  C30      1.0000 0.06410  0.54390  0.54390  Biso   1.000  C
  C31      1.0000 0.54390  0.06410  0.84810  Biso   1.000  C
  C32      1.0000 0.54390  0.84810  0.06410  Biso   1.000  C
  C33      1.0000 0.47369  0.47369  0.96285  Biso   1.000  C
  C34      1.0000 0.47369  0.47369  0.08977  Biso   1.000  C
  C35      1.0000 0.96285  0.08977  0.47369  Biso   1.000  C
  C36      1.0000 0.08977  0.96285  0.47369  Biso   1.000  C
  C37      1.0000 0.47369  0.96285  0.08977  Biso   1.000  C
  C38      1.0000 0.47369  0.08977  0.96285  Biso   1.000  C
  C39      1.0000 0.96285  0.47369  0.47369  Biso   1.000  C
  C40      1.0000 0.08977  0.47369  0.47369  Biso   1.000  C
  C41      1.0000 0.47369  0.08977  0.47369  Biso   1.000  C
  C42      1.0000 0.47369  0.96285  0.47369  Biso   1.000  C
  C43      1.0000 0.96285  0.47369  0.08977  Biso   1.000  C
  C44      1.0000 0.08977  0.47369  0.96285  Biso   1.000  C
  C45      1.0000 0.52631  0.52631  0.03715  Biso   1.000  C
  C46      1.0000 0.52631  0.52631  0.91023  Biso   1.000  C
  C47      1.0000 0.91023  0.03715  0.52631  Biso   1.000  C
  C48      1.0000 0.03715  0.91023  0.52631  Biso   1.000  C
  C49      1.0000 0.03715  0.52631  0.91023  Biso   1.000  C
  C50      1.0000 0.91023  0.52631  0.03715  Biso   1.000  C
  C51      1.0000 0.52631  0.03715  0.52631  Biso   1.000  C
  C52      1.0000 0.52631  0.91023  0.52631  Biso   1.000  C
  C53      1.0000 0.91023  0.52631  0.52631  Biso   1.000  C
  C54      1.0000 0.03715  0.52631  0.52631  Biso   1.000  C
  C55      1.0000 0.52631  0.03715  0.91023  Biso   1.000  C
  C56      1.0000 0.52631  0.91023  0.03715  Biso   1.000  C
  C57      1.0000 0.38870  0.38870  0.11130  Biso   1.000  C
  C58      1.0000 0.44610  0.44610  0.05390  Biso   1.000  C
  C59      1.0000 0.11130  0.11130  0.38870  Biso   1.000  C
  C60      1.0000 0.05390  0.05390  0.44610  Biso   1.000  C
  C61      1.0000 0.38870  0.11130  0.11130  Biso   1.000  C
  C62      1.0000 0.44610  0.05390  0.05390  Biso   1.000  C
  C63      1.0000 0.11130  0.38870  0.38870  Biso   1.000  C
  C64      1.0000 0.05390  0.44610  0.44610  Biso   1.000  C
  C65      1.0000 0.38870  0.11130  0.38870  Biso   1.000  C
  C66      1.0000 0.44610  0.05390  0.44610  Biso   1.000  C
  C67      1.0000 0.11130  0.38870  0.11130  Biso   1.000  C
  C68      1.0000 0.05390  0.44610  0.05390  Biso   1.000  C
  C69      1.0000 0.61130  0.61130  0.88870  Biso   1.000  C
  C70      1.0000 0.55390  0.55390  0.94610  Biso   1.000  C
  C71      1.0000 0.88870  0.88870  0.61130  Biso   1.000  C
  C72      1.0000 0.94610  0.94610  0.55390  Biso   1.000  C
  C73      1.0000 0.88870  0.61130  0.88870  Biso   1.000  C
  C74      1.0000 0.94610  0.55390  0.94610  Biso   1.000  C
  C75      1.0000 0.61130  0.88870  0.61130  Biso   1.000  C
  C76      1.0000 0.55390  0.94610  0.55390  Biso   1.000  C
  C77      1.0000 0.88870  0.61130  0.61130  Biso   1.000  C
  C78      1.0000 0.94610  0.55390  0.55390  Biso   1.000  C
  C79      1.0000 0.61130  0.88870  0.88870  Biso   1.000  C
  C80      1.0000 0.55390  0.94610  0.94610  Biso   1.000  C
  C81      1.0000 0.25000  0.25000  0.25000  Biso   1.000  C
  C82      1.0000 0.75000  0.75000  0.75000  Biso   1.000  C
  C83      1.0000 0.36609  0.36609  0.07323  Biso   1.000  C
  C84      1.0000 0.36609  0.36609  0.19459  Biso   1.000  C
  C85      1.0000 0.07323  0.19459  0.36609  Biso   1.000  C
  C86      1.0000 0.19459  0.07323  0.36609  Biso   1.000  C
  C87      1.0000 0.36609  0.07323  0.19459  Biso   1.000  C
  C88      1.0000 0.36609  0.19459  0.07323  Biso   1.000  C
  C89      1.0000 0.07323  0.36609  0.36609  Biso   1.000  C
  C90      1.0000 0.19459  0.36609  0.36609  Biso   1.000  C
  C91      1.0000 0.36609  0.19459  0.36609  Biso   1.000  C
  C92      1.0000 0.36609  0.07323  0.36609  Biso   1.000  C
  C93      1.0000 0.07323  0.36609  0.19459  Biso   1.000  C
  C94      1.0000 0.19459  0.36609  0.07323  Biso   1.000  C
  C95      1.0000 0.63391  0.63391  0.92677  Biso   1.000  C
  C96      1.0000 0.63391  0.63391  0.80541  Biso   1.000  C
  C97      1.0000 0.80541  0.92677  0.63391  Biso   1.000  C
  C98      1.0000 0.92677  0.80541  0.63391  Biso   1.000  C
  C99      1.0000 0.92677  0.63391  0.80541  Biso   1.000  C
  C100     1.0000 0.80541  0.63391  0.92677  Biso   1.000  C
  C101     1.0000 0.63391  0.92677  0.63391  Biso   1.000  C
  C102     1.0000 0.63391  0.80541  0.63391  Biso   1.000  C
  C103     1.0000 0.80541  0.63391  0.63391  Biso   1.000  C
  C104     1.0000 0.92677  0.63391  0.63391  Biso   1.000  C
  C105     1.0000 0.63391  0.92677  0.80541  Biso   1.000  C
  C106     1.0000 0.63391  0.80541  0.92677  Biso   1.000  C
  O1       1.0000 0.47809  0.34589  0.67138  Biso   1.000  O
  O2       1.0000 0.65238  0.34589  0.49709  Biso   1.000  O
  O3       1.0000 0.47809  0.34589  0.49709  Biso   1.000  O
  O4       1.0000 0.47809  0.52018  0.49709  Biso   1.000  O
  O5       1.0000 0.06885  0.93184  0.90875  Biso   1.000  O
  O6       1.0000 0.89456  0.93184  0.08304  Biso   1.000  O
  O7       1.0000 0.06885  0.75755  0.08304  Biso   1.000  O
  O8       1.0000 0.06885  0.93184  0.08304  Biso   1.000  O
  O9       1.0000 0.61950  0.18397  0.85382  Biso   1.000  O
  O10      1.0000 0.83722  0.18397  0.63610  Biso   1.000  O
  O11      1.0000 0.31858  0.48490  0.33517  Biso   1.000  O
  O12      1.0000 0.31857  0.70262  0.33517  Biso   1.000  O
  O13      1.0000 0.31858  0.70262  0.63610  Biso   1.000  O
  O14      1.0000 0.31858  0.48490  0.85382  Biso   1.000  O
  O15      1.0000 0.61950  0.18397  0.33517  Biso   1.000  O
  O16      1.0000 0.83722  0.18397  0.33517  Biso   1.000  O
  O17      1.0000 0.83722  0.48490  0.33517  Biso   1.000  O
  O18      1.0000 0.61950  0.70262  0.33517  Biso   1.000  O
  O19      1.0000 0.31858  0.18397  0.63610  Biso   1.000  O
  O20      1.0000 0.31857  0.18397  0.85382  Biso   1.000  O
  O21      1.0000 0.92744  0.09376  0.72631  Biso   1.000  O
  O22      1.0000 0.70971  0.09376  0.94403  Biso   1.000  O
  O23      1.0000 0.22836  0.57511  0.24496  Biso   1.000  O
  O24      1.0000 0.22836  0.79283  0.24496  Biso   1.000  O
  O25      1.0000 0.22836  0.09376  0.94403  Biso   1.000  O
  O26      1.0000 0.22836  0.09376  0.72631  Biso   1.000  O
  O27      1.0000 0.92744  0.57511  0.24496  Biso   1.000  O
  O28      1.0000 0.70971  0.79283  0.24496  Biso   1.000  O
  O29      1.0000 0.70971  0.09376  0.24496  Biso   1.000  O
  O30      1.0000 0.92744  0.09376  0.24496  Biso   1.000  O
  O31      1.0000 0.22836  0.57511  0.94403  Biso   1.000  O
  O32      1.0000 0.22836  0.79283  0.72631  Biso   1.000  O
  O33      1.0000 0.68301  0.16571  0.82683  Biso   1.000  O
  O34      1.0000 0.81023  0.16571  0.69961  Biso   1.000  O
  O35      1.0000 0.30031  0.54841  0.31691  Biso   1.000  O
  O36      1.0000 0.30031  0.67563  0.31691  Biso   1.000  O
  O37      1.0000 0.30031  0.67563  0.69961  Biso   1.000  O
  O38      1.0000 0.30031  0.54841  0.82683  Biso   1.000  O
  O39      1.0000 0.68301  0.16571  0.31691  Biso   1.000  O
  O40      1.0000 0.81023  0.16571  0.31691  Biso   1.000  O
  O41      1.0000 0.81023  0.54841  0.31691  Biso   1.000  O
  O42      1.0000 0.68301  0.67563  0.31691  Biso   1.000  O
  O43      1.0000 0.30031  0.16571  0.69961  Biso   1.000  O
  O44      1.0000 0.30031  0.16571  0.82683  Biso   1.000  O
  O45      1.0000 0.86392  0.11202  0.75330  Biso   1.000  O
  O46      1.0000 0.73670  0.11202  0.88052  Biso   1.000  O
  O47      1.0000 0.24662  0.60210  0.26322  Biso   1.000  O
  O48      1.0000 0.24662  0.72932  0.26322  Biso   1.000  O
  O49      1.0000 0.24662  0.11202  0.88052  Biso   1.000  O
  O50      1.0000 0.24662  0.11202  0.75330  Biso   1.000  O
  O51      1.0000 0.86392  0.60210  0.26322  Biso   1.000  O
  O52      1.0000 0.73670  0.72932  0.26322  Biso   1.000  O
  O53      1.0000 0.73670  0.11202  0.26322  Biso   1.000  O
  O54      1.0000 0.86392  0.11202  0.26322  Biso   1.000  O
  O55      1.0000 0.24662  0.60210  0.88052  Biso   1.000  O
  O56      1.0000 0.24662  0.72932  0.75330  Biso   1.000  O
  O57      1.0000 0.66039  0.25073  0.67940  Biso   1.000  O
  O58      1.0000 0.71852  0.19260  0.73753  Biso   1.000  O
  O59      1.0000 0.38293  0.52820  0.40193  Biso   1.000  O
  O60      1.0000 0.32480  0.58633  0.34380  Biso   1.000  O
  O61      1.0000 0.38293  0.52820  0.67940  Biso   1.000  O
  O62      1.0000 0.32480  0.58633  0.73753  Biso   1.000  O
  O63      1.0000 0.66039  0.25073  0.40193  Biso   1.000  O
  O64      1.0000 0.71852  0.19260  0.34380  Biso   1.000  O
  O65      1.0000 0.66040  0.52820  0.40193  Biso   1.000  O
  O66      1.0000 0.71852  0.58633  0.34380  Biso   1.000  O
  O67      1.0000 0.38293  0.25073  0.67940  Biso   1.000  O
  O68      1.0000 0.32480  0.19260  0.73753  Biso   1.000  O
  O69      1.0000 0.88654  0.02700  0.90073  Biso   1.000  O
  O70      1.0000 0.82841  0.08513  0.84260  Biso   1.000  O
  O71      1.0000 0.16400  0.74953  0.17820  Biso   1.000  O
  O72      1.0000 0.22213  0.69140  0.23633  Biso   1.000  O
  O73      1.0000 0.16400  0.02700  0.90073  Biso   1.000  O
  O74      1.0000 0.22213  0.08513  0.84260  Biso   1.000  O
  O75      1.0000 0.88654  0.74953  0.17820  Biso   1.000  O
  O76      1.0000 0.82841  0.69140  0.23633  Biso   1.000  O
  O77      1.0000 0.88654  0.02700  0.17820  Biso   1.000  O
  O78      1.0000 0.82841  0.08513  0.23633  Biso   1.000  O
  O79      1.0000 0.16400  0.74953  0.90073  Biso   1.000  O
  O80      1.0000 0.22213  0.69140  0.84260  Biso   1.000  O
  O81      1.0000 0.52166  0.38947  0.54067  Biso   1.000  O
  O82      1.0000 0.02527  0.88826  0.03946  Biso   1.000  O
  O83      1.0000 0.57701  0.27307  0.71811  Biso   1.000  O
  O84      1.0000 0.69911  0.27307  0.59602  Biso   1.000  O
  O85      1.0000 0.40526  0.44482  0.42427  Biso   1.000  O
  O86      1.0000 0.40526  0.56691  0.42427  Biso   1.000  O
  O87      1.0000 0.40526  0.56691  0.59602  Biso   1.000  O
  O88      1.0000 0.40526  0.44482  0.71811  Biso   1.000  O
  O89      1.0000 0.57701  0.27307  0.42427  Biso   1.000  O
  O90      1.0000 0.69911  0.27307  0.42427  Biso   1.000  O
  O91      1.0000 0.69911  0.44482  0.42427  Biso   1.000  O
  O92      1.0000 0.57701  0.56691  0.42427  Biso   1.000  O
  O93      1.0000 0.40526  0.27307  0.59602  Biso   1.000  O
  O94      1.0000 0.40526  0.27307  0.71811  Biso   1.000  O
  O95      1.0000 0.96992  0.00466  0.86202  Biso   1.000  O
  O96      1.0000 0.84783  0.00466  0.98411  Biso   1.000  O
  O97      1.0000 0.14167  0.71082  0.15586  Biso   1.000  O
  O98      1.0000 0.14167  0.83291  0.15586  Biso   1.000  O
  O99      1.0000 0.14167  0.00466  0.98411  Biso   1.000  O
  O100     1.0000 0.14167  0.00466  0.86202  Biso   1.000  O
  O101     1.0000 0.96992  0.71082  0.15586  Biso   1.000  O
  O102     1.0000 0.84783  0.83291  0.15586  Biso   1.000  O
  O103     1.0000 0.84783  0.00466  0.15586  Biso   1.000  O
  O104     1.0000 0.96992  0.00466  0.15586  Biso   1.000  O
  O105     1.0000 0.14167  0.71082  0.98411  Biso   1.000  O
