data_image0
_cell_length_a       18.2888
_cell_length_b       18.2888
_cell_length_c       18.2888
_cell_angle_alpha    60
_cell_angle_beta     60
_cell_angle_gamma    60

_symmetry_space_group_name_H-M    "P 1"
_symmetry_int_tables_number       1

loop_
  _symmetry_equiv_pos_as_xyz
  'x, y, z'

loop_
  _atom_site_label
  _atom_site_occupancy
  _atom_site_fract_x
  _atom_site_fract_y
  _atom_site_fract_z
  _atom_site_thermal_displace_type
  _atom_site_B_iso_or_equiv
  _atom_site_type_symbol
  Zn1      1.0000 0.29344  0.29345  0.11966  Biso   1.000  Zn
  Zn2      1.0000 0.29344  0.29345  0.29345  Biso   1.000  Zn
  Zn3      1.0000 0.11965  0.29345  0.29345  Biso   1.000  Zn
  Zn4      1.0000 0.29344  0.11966  0.29345  Biso   1.000  Zn
  Zn5      1.0000 0.70655  0.70656  0.88034  Biso   1.000  Zn
  Zn6      1.0000 0.70656  0.70655  0.70655  Biso   1.000  Zn
  Zn7      1.0000 0.70655  0.88034  0.70656  Biso   1.000  Zn
  Zn8      1.0000 0.88035  0.70655  0.70655  Biso   1.000  Zn
  H1       1.0000 0.45490  0.45490  0.93490  Biso   1.000  H
  H2       1.0000 0.45490  0.45490  0.15530  Biso   1.000  H
  H3       1.0000 0.93490  0.15530  0.45490  Biso   1.000  H
  H4       1.0000 0.15530  0.93490  0.45490  Biso   1.000  H
  H5       1.0000 0.45490  0.93490  0.15530  Biso   1.000  H
  H6       1.0000 0.45490  0.15530  0.93490  Biso   1.000  H
  H7       1.0000 0.93490  0.45490  0.45490  Biso   1.000  H
  H8       1.0000 0.15530  0.45490  0.45490  Biso   1.000  H
  H9       1.0000 0.45490  0.15530  0.45490  Biso   1.000  H
  H10      1.0000 0.45490  0.93490  0.45490  Biso   1.000  H
  H11      1.0000 0.93490  0.45490  0.15530  Biso   1.000  H
  H12      1.0000 0.15530  0.45490  0.93490  Biso   1.000  H
  H13      1.0000 0.54510  0.54510  0.06510  Biso   1.000  H
  H14      1.0000 0.54510  0.54510  0.84470  Biso   1.000  H
  H15      1.0000 0.84470  0.06510  0.54510  Biso   1.000  H
  H16      1.0000 0.06510  0.84470  0.54510  Biso   1.000  H
  H17      1.0000 0.06510  0.54510  0.84470  Biso   1.000  H
  H18      1.0000 0.84470  0.54510  0.06510  Biso   1.000  H
  H19      1.0000 0.54510  0.06510  0.54510  Biso   1.000  H
  H20      1.0000 0.54510  0.84470  0.54510  Biso   1.000  H
  H21      1.0000 0.84470  0.54510  0.54510  Biso   1.000  H
  H22      1.0000 0.06510  0.54510  0.54510  Biso   1.000  H
  H23      1.0000 0.54510  0.06510  0.84470  Biso   1.000  H
  H24      1.0000 0.54510  0.84470  0.06510  Biso   1.000  H
  C1       1.0000 0.47314  0.47314  0.96174  Biso   1.000  C
  C2       1.0000 0.47314  0.47314  0.09198  Biso   1.000  C
  C3       1.0000 0.96174  0.09198  0.47314  Biso   1.000  C
  C4       1.0000 0.09198  0.96174  0.47314  Biso   1.000  C
  C5       1.0000 0.47314  0.96174  0.09198  Biso   1.000  C
  C6       1.0000 0.47314  0.09198  0.96174  Biso   1.000  C
  C7       1.0000 0.96174  0.47314  0.47314  Biso   1.000  C
  C8       1.0000 0.09198  0.47314  0.47314  Biso   1.000  C
  C9       1.0000 0.47314  0.09198  0.47314  Biso   1.000  C
  C10      1.0000 0.47314  0.96174  0.47314  Biso   1.000  C
  C11      1.0000 0.96174  0.47314  0.09198  Biso   1.000  C
  C12      1.0000 0.09198  0.47314  0.96174  Biso   1.000  C
  C13      1.0000 0.52686  0.52686  0.03826  Biso   1.000  C
  C14      1.0000 0.52686  0.52686  0.90802  Biso   1.000  C
  C15      1.0000 0.90802  0.03826  0.52686  Biso   1.000  C
  C16      1.0000 0.03826  0.90802  0.52686  Biso   1.000  C
  C17      1.0000 0.03826  0.52686  0.90802  Biso   1.000  C
  C18      1.0000 0.90802  0.52686  0.03826  Biso   1.000  C
  C19      1.0000 0.52686  0.03826  0.52686  Biso   1.000  C
  C20      1.0000 0.52686  0.90802  0.52686  Biso   1.000  C
  C21      1.0000 0.90802  0.52686  0.52686  Biso   1.000  C
  C22      1.0000 0.03826  0.52686  0.52686  Biso   1.000  C
  C23      1.0000 0.52686  0.03826  0.90802  Biso   1.000  C
  C24      1.0000 0.52686  0.90802  0.03826  Biso   1.000  C
  C25      1.0000 0.38849  0.38849  0.11151  Biso   1.000  C
  C26      1.0000 0.44624  0.44624  0.05376  Biso   1.000  C
  C27      1.0000 0.11151  0.11151  0.38849  Biso   1.000  C
  C28      1.0000 0.05376  0.05376  0.44624  Biso   1.000  C
  C29      1.0000 0.38849  0.11151  0.11151  Biso   1.000  C
  C30      1.0000 0.44624  0.05376  0.05376  Biso   1.000  C
  C31      1.0000 0.11151  0.38849  0.38849  Biso   1.000  C
  C32      1.0000 0.05376  0.44624  0.44624  Biso   1.000  C
  C33      1.0000 0.38849  0.11151  0.38849  Biso   1.000  C
  C34      1.0000 0.44624  0.05376  0.44624  Biso   1.000  C
  C35      1.0000 0.11151  0.38849  0.11151  Biso   1.000  C
  C36      1.0000 0.05376  0.44624  0.05376  Biso   1.000  C
  C37      1.0000 0.61151  0.61151  0.88849  Biso   1.000  C
  C38      1.0000 0.55376  0.55376  0.94624  Biso   1.000  C
  C39      1.0000 0.88849  0.88849  0.61151  Biso   1.000  C
  C40      1.0000 0.94624  0.94624  0.55376  Biso   1.000  C
  C41      1.0000 0.88849  0.61151  0.88849  Biso   1.000  C
  C42      1.0000 0.94624  0.55376  0.94624  Biso   1.000  C
  C43      1.0000 0.61151  0.88849  0.61151  Biso   1.000  C
  C44      1.0000 0.55376  0.94624  0.55376  Biso   1.000  C
  C45      1.0000 0.88849  0.61151  0.61151  Biso   1.000  C
  C46      1.0000 0.94624  0.55376  0.55376  Biso   1.000  C
  C47      1.0000 0.61151  0.88849  0.88849  Biso   1.000  C
  C48      1.0000 0.55376  0.94624  0.94624  Biso   1.000  C
  O1       1.0000 0.25000  0.25000  0.25000  Biso   1.000  O
  O2       1.0000 0.75000  0.75000  0.75000  Biso   1.000  O
  O3       1.0000 0.36620  0.36620  0.07286  Biso   1.000  O
  O4       1.0000 0.36620  0.36620  0.19474  Biso   1.000  O
  O5       1.0000 0.07286  0.19474  0.36620  Biso   1.000  O
  O6       1.0000 0.19474  0.07286  0.36620  Biso   1.000  O
  O7       1.0000 0.36620  0.07286  0.19474  Biso   1.000  O
  O8       1.0000 0.36620  0.19474  0.07286  Biso   1.000  O
  O9       1.0000 0.07286  0.36620  0.36620  Biso   1.000  O
  O10      1.0000 0.19474  0.36620  0.36620  Biso   1.000  O
  O11      1.0000 0.36620  0.19474  0.36620  Biso   1.000  O
  O12      1.0000 0.36620  0.07286  0.36620  Biso   1.000  O
  O13      1.0000 0.07286  0.36620  0.19474  Biso   1.000  O
  O14      1.0000 0.19474  0.36620  0.07286  Biso   1.000  O
  O15      1.0000 0.63380  0.63380  0.92714  Biso   1.000  O
  O16      1.0000 0.63380  0.63380  0.80526  Biso   1.000  O
  O17      1.0000 0.80526  0.92714  0.63380  Biso   1.000  O
  O18      1.0000 0.92714  0.80526  0.63380  Biso   1.000  O
  O19      1.0000 0.92714  0.63380  0.80526  Biso   1.000  O
  O20      1.0000 0.80526  0.63380  0.92714  Biso   1.000  O
  O21      1.0000 0.63380  0.92714  0.63380  Biso   1.000  O
  O22      1.0000 0.63380  0.80526  0.63380  Biso   1.000  O
  O23      1.0000 0.80526  0.63380  0.63380  Biso   1.000  O
  O24      1.0000 0.92714  0.63380  0.63380  Biso   1.000  O
  O25      1.0000 0.63380  0.92714  0.80526  Biso   1.000  O
  O26      1.0000 0.63380  0.80526  0.92714  Biso   1.000  O
  Zn9      1.0000 0.16403  0.00000  0.00000  Biso   1.000  Zn
  Zn10     1.0000 0.57739  0.58651  0.41363  Biso   1.000  Zn
  Zn11     1.0000 0.57739  0.41198  0.41363  Biso   1.000  Zn
  Zn12     1.0000 0.16403  0.82547  0.00000  Biso   1.000  Zn
  Zn13     1.0000 0.16358  0.00034  0.82525  Biso   1.000  Zn
  Zn14     1.0000 0.98911  0.00015  0.00010  Biso   1.000  Zn
  Zn15     1.0000 0.57785  0.41164  0.58838  Biso   1.000  Zn
  Zn16     1.0000 0.75232  0.41183  0.41353  Biso   1.000  Zn
  H25      1.0000 0.32882  0.64420  0.85672  Biso   1.000  H
  H26      1.0000 0.32050  0.86059  0.64544  Biso   1.000  H
  H27      1.0000 0.02555  0.64528  0.15983  Biso   1.000  H
  H28      1.0000 0.80646  0.85807  0.16212  Biso   1.000  H
  H29      1.0000 0.32963  0.86006  0.15733  Biso   1.000  H
  H30      1.0000 0.41261  0.25220  0.55691  Biso   1.000  H
  H31      1.0000 0.42093  0.24900  0.76819  Biso   1.000  H
  H32      1.0000 0.71588  0.25312  0.25380  Biso   1.000  H
  H33      1.0000 0.93496  0.24913  0.25151  Biso   1.000  H
  H34      1.0000 0.41180  0.76949  0.25630  Biso   1.000  H
  H35      1.0000 0.41261  0.76778  0.55691  Biso   1.000  H
  H36      1.0000 0.42093  0.55139  0.76819  Biso   1.000  H
  H37      1.0000 0.71588  0.76670  0.25380  Biso   1.000  H
  H38      1.0000 0.93496  0.55391  0.25151  Biso   1.000  H
  H39      1.0000 0.41180  0.55192  0.25630  Biso   1.000  H
  H40      1.0000 0.32882  0.15978  0.85672  Biso   1.000  H
  H41      1.0000 0.32050  0.16298  0.64544  Biso   1.000  H
  H42      1.0000 0.02555  0.15886  0.15983  Biso   1.000  H
  H43      1.0000 0.80647  0.16285  0.16212  Biso   1.000  H
  H44      1.0000 0.32963  0.64249  0.15733  Biso   1.000  H
  H45      1.0000 0.80735  0.16167  0.85882  Biso   1.000  H
  H46      1.0000 0.02081  0.16278  0.64314  Biso   1.000  H
  H47      1.0000 0.93408  0.25031  0.55481  Biso   1.000  H
  H48      1.0000 0.72062  0.24920  0.77049  Biso   1.000  H
  C49      1.0000 0.25813  0.81697  0.82039  Biso   1.000  C
  C50      1.0000 0.31761  0.75899  0.75931  Biso   1.000  C
  C51      1.0000 0.34658  0.66985  0.79464  Biso   1.000  C
  C52      1.0000 0.33986  0.79861  0.67138  Biso   1.000  C
  C53      1.0000 0.97961  0.82015  0.09695  Biso   1.000  C
  C54      1.0000 0.92562  0.76176  0.15214  Biso   1.000  C
  C55      1.0000 0.96347  0.67143  0.17779  Biso   1.000  C
  C56      1.0000 0.83411  0.79619  0.17959  Biso   1.000  C
  C57      1.0000 0.34550  0.79809  0.17739  Biso   1.000  C
  C58      1.0000 0.48329  0.31797  0.59324  Biso   1.000  C
  C59      1.0000 0.42382  0.25839  0.65432  Biso   1.000  C
  C60      1.0000 0.39485  0.23354  0.61899  Biso   1.000  C
  C61      1.0000 0.40156  0.23234  0.74225  Biso   1.000  C
  C62      1.0000 0.76182  0.31918  0.31668  Biso   1.000  C
  C63      1.0000 0.81580  0.26200  0.26149  Biso   1.000  C
  C64      1.0000 0.77796  0.23516  0.23584  Biso   1.000  C
  C65      1.0000 0.90732  0.23236  0.23404  Biso   1.000  C
  C66      1.0000 0.39593  0.74345  0.23624  Biso   1.000  C
  C67      1.0000 0.48329  0.59501  0.59324  Biso   1.000  C
  C68      1.0000 0.42382  0.65299  0.65432  Biso   1.000  C
  C69      1.0000 0.39485  0.74213  0.61899  Biso   1.000  C
  C70      1.0000 0.40157  0.61337  0.74225  Biso   1.000  C
  C71      1.0000 0.76182  0.59183  0.31668  Biso   1.000  C
  C72      1.0000 0.81581  0.65022  0.26149  Biso   1.000  C
  C73      1.0000 0.77795  0.74055  0.23584  Biso   1.000  C
  C74      1.0000 0.90732  0.61579  0.23404  Biso   1.000  C
  C75      1.0000 0.39593  0.61389  0.23624  Biso   1.000  C
  C76      1.0000 0.25814  0.09401  0.82039  Biso   1.000  C
  C77      1.0000 0.31761  0.15359  0.75931  Biso   1.000  C
  C78      1.0000 0.34658  0.17844  0.79464  Biso   1.000  C
  C79      1.0000 0.33986  0.17964  0.67138  Biso   1.000  C
  C80      1.0000 0.97961  0.09280  0.09695  Biso   1.000  C
  C81      1.0000 0.92563  0.14998  0.15214  Biso   1.000  C
  C82      1.0000 0.96347  0.17682  0.17779  Biso   1.000  C
  C83      1.0000 0.83411  0.17962  0.17959  Biso   1.000  C
  C84      1.0000 0.34550  0.66853  0.17739  Biso   1.000  C
  C85      1.0000 0.98629  0.09481  0.81361  Biso   1.000  C
  C86      1.0000 0.92421  0.15190  0.76151  Biso   1.000  C
  C87      1.0000 0.83449  0.17904  0.79694  Biso   1.000  C
  C88      1.0000 0.95883  0.18024  0.67019  Biso   1.000  C
  C89      1.0000 0.25665  0.82194  0.08897  Biso   1.000  C
  C90      1.0000 0.31653  0.76037  0.15224  Biso   1.000  C
  C91      1.0000 0.75514  0.31717  0.60002  Biso   1.000  C
  C92      1.0000 0.81722  0.26008  0.65212  Biso   1.000  C
  C93      1.0000 0.90694  0.23294  0.61669  Biso   1.000  C
  C94      1.0000 0.78259  0.23174  0.74344  Biso   1.000  C
  C95      1.0000 0.48478  0.59004  0.32466  Biso   1.000  C
  C96      1.0000 0.42490  0.65161  0.26139  Biso   1.000  C
  O27      1.0000 0.23807  0.90220  0.77458  Biso   1.000  O
  O28      1.0000 0.23938  0.77315  0.90443  Biso   1.000  O
  O29      1.0000 0.93979  0.90318  0.07050  Biso   1.000  O
  O30      1.0000 0.06574  0.77614  0.07449  Biso   1.000  O
  O31      1.0000 0.23759  0.90418  0.07170  Biso   1.000  O
  O32      1.0000 0.50335  0.33733  0.63905  Biso   1.000  O
  O33      1.0000 0.50205  0.33943  0.50920  Biso   1.000  O
  O34      1.0000 0.80164  0.33595  0.34313  Biso   1.000  O
  O35      1.0000 0.67569  0.33884  0.33914  Biso   1.000  O
  O36      1.0000 0.50384  0.63594  0.34193  Biso   1.000  O
  O37      1.0000 0.50336  0.50978  0.63905  Biso   1.000  O
  O38      1.0000 0.50205  0.63883  0.50920  Biso   1.000  O
  O39      1.0000 0.80164  0.50880  0.34313  Biso   1.000  O
  O40      1.0000 0.67569  0.63584  0.33914  Biso   1.000  O
  O41      1.0000 0.50384  0.50780  0.34193  Biso   1.000  O
  O42      1.0000 0.23807  0.07465  0.77458  Biso   1.000  O
  O43      1.0000 0.23938  0.07255  0.90443  Biso   1.000  O
  O44      1.0000 0.93979  0.07603  0.07050  Biso   1.000  O
  O45      1.0000 0.06574  0.07314  0.07449  Biso   1.000  O
  O46      1.0000 0.23759  0.77604  0.07170  Biso   1.000  O
  O47      1.0000 0.12092  0.95628  0.95603  Biso   1.000  O
  O48      1.0000 0.06692  0.07365  0.77528  Biso   1.000  O
  O49      1.0000 0.94118  0.07594  0.89644  Biso   1.000  O
  O50      1.0000 0.62051  0.45570  0.45760  Biso   1.000  O
  O51      1.0000 0.67451  0.33833  0.63835  Biso   1.000  O
