data_image0
_cell_length_a       18.3083
_cell_length_b       18.3083
_cell_length_c       18.3083
_cell_angle_alpha    60
_cell_angle_beta     60
_cell_angle_gamma    60

_symmetry_space_group_name_H-M    "P 1"
_symmetry_int_tables_number       1

loop_
  _symmetry_equiv_pos_as_xyz
  'x, y, z'

loop_
  _atom_site_label
  _atom_site_occupancy
  _atom_site_fract_x
  _atom_site_fract_y
  _atom_site_fract_z
  _atom_site_thermal_displace_type
  _atom_site_B_iso_or_equiv
  _atom_site_type_symbol
  Zn1      1.0000 0.29342  0.29341  0.11976  Biso   1.000  Zn
  Zn2      1.0000 0.29342  0.29341  0.29341  Biso   1.000  Zn
  Zn3      1.0000 0.11977  0.29341  0.29341  Biso   1.000  Zn
  Zn4      1.0000 0.29342  0.11976  0.29341  Biso   1.000  Zn
  Zn5      1.0000 0.70658  0.70659  0.88024  Biso   1.000  Zn
  Zn6      1.0000 0.70658  0.70659  0.70659  Biso   1.000  Zn
  Zn7      1.0000 0.70658  0.88024  0.70659  Biso   1.000  Zn
  Zn8      1.0000 0.88023  0.70659  0.70659  Biso   1.000  Zn
  H1       1.0000 0.45480  0.45480  0.93480  Biso   1.000  H
  H2       1.0000 0.45480  0.45480  0.15560  Biso   1.000  H
  H3       1.0000 0.93480  0.15560  0.45480  Biso   1.000  H
  H4       1.0000 0.15560  0.93480  0.45480  Biso   1.000  H
  H5       1.0000 0.45480  0.93480  0.15560  Biso   1.000  H
  H6       1.0000 0.45480  0.15560  0.93480  Biso   1.000  H
  H7       1.0000 0.93480  0.45480  0.45480  Biso   1.000  H
  H8       1.0000 0.15560  0.45480  0.45480  Biso   1.000  H
  H9       1.0000 0.45480  0.15560  0.45480  Biso   1.000  H
  H10      1.0000 0.45480  0.93480  0.45480  Biso   1.000  H
  H11      1.0000 0.93480  0.45480  0.15560  Biso   1.000  H
  H12      1.0000 0.15560  0.45480  0.93480  Biso   1.000  H
  H13      1.0000 0.54520  0.54520  0.06520  Biso   1.000  H
  H14      1.0000 0.54520  0.54520  0.84440  Biso   1.000  H
  H15      1.0000 0.84440  0.06520  0.54520  Biso   1.000  H
  H16      1.0000 0.06520  0.84440  0.54520  Biso   1.000  H
  H17      1.0000 0.06520  0.54520  0.84440  Biso   1.000  H
  H18      1.0000 0.84440  0.54520  0.06520  Biso   1.000  H
  H19      1.0000 0.54520  0.06520  0.54520  Biso   1.000  H
  H20      1.0000 0.54520  0.84440  0.54520  Biso   1.000  H
  H21      1.0000 0.84440  0.54520  0.54520  Biso   1.000  H
  H22      1.0000 0.06520  0.54520  0.54520  Biso   1.000  H
  H23      1.0000 0.54520  0.06520  0.84440  Biso   1.000  H
  H24      1.0000 0.54520  0.84440  0.06520  Biso   1.000  H
  C1       1.0000 0.47317  0.47317  0.96131  Biso   1.000  C
  C2       1.0000 0.47317  0.47317  0.09235  Biso   1.000  C
  C3       1.0000 0.96131  0.09235  0.47317  Biso   1.000  C
  C4       1.0000 0.09235  0.96131  0.47317  Biso   1.000  C
  C5       1.0000 0.47317  0.96131  0.09235  Biso   1.000  C
  C6       1.0000 0.47317  0.09235  0.96131  Biso   1.000  C
  C7       1.0000 0.96131  0.47317  0.47317  Biso   1.000  C
  C8       1.0000 0.09235  0.47317  0.47317  Biso   1.000  C
  C9       1.0000 0.47317  0.09235  0.47317  Biso   1.000  C
  C10      1.0000 0.47317  0.96131  0.47317  Biso   1.000  C
  C11      1.0000 0.96131  0.47317  0.09235  Biso   1.000  C
  C12      1.0000 0.09235  0.47317  0.96131  Biso   1.000  C
  C13      1.0000 0.52683  0.52683  0.03869  Biso   1.000  C
  C14      1.0000 0.52683  0.52683  0.90765  Biso   1.000  C
  C15      1.0000 0.90765  0.03869  0.52683  Biso   1.000  C
  C16      1.0000 0.03869  0.90765  0.52683  Biso   1.000  C
  C17      1.0000 0.03869  0.52683  0.90765  Biso   1.000  C
  C18      1.0000 0.90765  0.52683  0.03869  Biso   1.000  C
  C19      1.0000 0.52683  0.03869  0.52683  Biso   1.000  C
  C20      1.0000 0.52683  0.90765  0.52683  Biso   1.000  C
  C21      1.0000 0.90765  0.52683  0.52683  Biso   1.000  C
  C22      1.0000 0.03869  0.52683  0.52683  Biso   1.000  C
  C23      1.0000 0.52683  0.03869  0.90765  Biso   1.000  C
  C24      1.0000 0.52683  0.90765  0.03869  Biso   1.000  C
  C25      1.0000 0.38843  0.38843  0.11157  Biso   1.000  C
  C26      1.0000 0.44641  0.44641  0.05359  Biso   1.000  C
  C27      1.0000 0.11157  0.11157  0.38843  Biso   1.000  C
  C28      1.0000 0.05359  0.05359  0.44641  Biso   1.000  C
  C29      1.0000 0.38843  0.11157  0.11157  Biso   1.000  C
  C30      1.0000 0.44641  0.05359  0.05359  Biso   1.000  C
  C31      1.0000 0.11157  0.38843  0.38843  Biso   1.000  C
  C32      1.0000 0.05359  0.44641  0.44641  Biso   1.000  C
  C33      1.0000 0.38843  0.11157  0.38843  Biso   1.000  C
  C34      1.0000 0.44641  0.05359  0.44641  Biso   1.000  C
  C35      1.0000 0.11157  0.38843  0.11157  Biso   1.000  C
  C36      1.0000 0.05359  0.44641  0.05359  Biso   1.000  C
  C37      1.0000 0.61157  0.61157  0.88843  Biso   1.000  C
  C38      1.0000 0.55359  0.55359  0.94641  Biso   1.000  C
  C39      1.0000 0.88843  0.88843  0.61157  Biso   1.000  C
  C40      1.0000 0.94641  0.94641  0.55359  Biso   1.000  C
  C41      1.0000 0.88843  0.61157  0.88843  Biso   1.000  C
  C42      1.0000 0.94641  0.55359  0.94641  Biso   1.000  C
  C43      1.0000 0.61157  0.88843  0.61157  Biso   1.000  C
  C44      1.0000 0.55359  0.94641  0.55359  Biso   1.000  C
  C45      1.0000 0.88843  0.61157  0.61157  Biso   1.000  C
  C46      1.0000 0.94641  0.55359  0.55359  Biso   1.000  C
  C47      1.0000 0.61157  0.88843  0.88843  Biso   1.000  C
  C48      1.0000 0.55359  0.94641  0.94641  Biso   1.000  C
  O1       1.0000 0.25000  0.25000  0.25000  Biso   1.000  O
  O2       1.0000 0.75000  0.75000  0.75000  Biso   1.000  O
  O3       1.0000 0.36629  0.36629  0.07237  Biso   1.000  O
  O4       1.0000 0.36629  0.36629  0.19505  Biso   1.000  O
  O5       1.0000 0.07237  0.19505  0.36629  Biso   1.000  O
  O6       1.0000 0.19505  0.07237  0.36629  Biso   1.000  O
  O7       1.0000 0.36629  0.07237  0.19505  Biso   1.000  O
  O8       1.0000 0.36629  0.19505  0.07237  Biso   1.000  O
  O9       1.0000 0.07237  0.36629  0.36629  Biso   1.000  O
  O10      1.0000 0.19505  0.36629  0.36629  Biso   1.000  O
  O11      1.0000 0.36629  0.19505  0.36629  Biso   1.000  O
  O12      1.0000 0.36629  0.07237  0.36629  Biso   1.000  O
  O13      1.0000 0.07237  0.36629  0.19505  Biso   1.000  O
  O14      1.0000 0.19505  0.36629  0.07237  Biso   1.000  O
  O15      1.0000 0.63371  0.63371  0.92763  Biso   1.000  O
  O16      1.0000 0.63371  0.63371  0.80495  Biso   1.000  O
  O17      1.0000 0.80495  0.92763  0.63371  Biso   1.000  O
  O18      1.0000 0.92763  0.80495  0.63371  Biso   1.000  O
  O19      1.0000 0.92763  0.63371  0.80495  Biso   1.000  O
  O20      1.0000 0.80495  0.63371  0.92763  Biso   1.000  O
  O21      1.0000 0.63371  0.92763  0.63371  Biso   1.000  O
  O22      1.0000 0.63371  0.80495  0.63371  Biso   1.000  O
  O23      1.0000 0.80495  0.63371  0.63371  Biso   1.000  O
  O24      1.0000 0.92763  0.63371  0.63371  Biso   1.000  O
  O25      1.0000 0.63371  0.92763  0.80495  Biso   1.000  O
  O26      1.0000 0.63371  0.80495  0.92763  Biso   1.000  O
  Zn9      1.0000 0.68403  0.34847  0.46827  Biso   1.000  Zn
  Zn10     1.0000 0.50248  0.34847  0.64982  Biso   1.000  Zn
  Zn11     1.0000 0.50248  0.53002  0.46827  Biso   1.000  Zn
  Zn12     1.0000 0.50248  0.34847  0.46827  Biso   1.000  Zn
  Zn13     1.0000 0.08329  0.93923  0.88748  Biso   1.000  Zn
  Zn14     1.0000 0.91173  0.93923  0.05903  Biso   1.000  Zn
  Zn15     1.0000 0.08329  0.93923  0.05903  Biso   1.000  Zn
  Zn16     1.0000 0.08329  0.76768  0.05903  Biso   1.000  Zn
  H25      1.0000 0.94050  0.10198  0.70478  Biso   1.000  H
  H26      1.0000 0.72903  0.10198  0.91625  Biso   1.000  H
  H27      1.0000 0.24603  0.79645  0.22178  Biso   1.000  H
  H28      1.0000 0.24603  0.58498  0.22178  Biso   1.000  H
  H29      1.0000 0.24603  0.58498  0.91625  Biso   1.000  H
  H30      1.0000 0.24603  0.79645  0.70478  Biso   1.000  H
  H31      1.0000 0.94051  0.10198  0.22178  Biso   1.000  H
  H32      1.0000 0.72903  0.10198  0.22178  Biso   1.000  H
  H33      1.0000 0.72903  0.79645  0.22178  Biso   1.000  H
  H34      1.0000 0.94050  0.58498  0.22178  Biso   1.000  H
  H35      1.0000 0.24603  0.10198  0.91625  Biso   1.000  H
  H36      1.0000 0.24603  0.10198  0.70478  Biso   1.000  H
  C49      1.0000 0.83091  0.16861  0.68112  Biso   1.000  C
  C50      1.0000 0.87883  0.11851  0.73339  Biso   1.000  C
  C51      1.0000 0.70537  0.16861  0.80665  Biso   1.000  C
  C52      1.0000 0.75764  0.11851  0.85457  Biso   1.000  C
  C53      1.0000 0.31266  0.68685  0.28841  Biso   1.000  C
  C54      1.0000 0.26257  0.73477  0.23831  Biso   1.000  C
  C55      1.0000 0.31266  0.56132  0.28841  Biso   1.000  C
  C56      1.0000 0.26257  0.61359  0.23831  Biso   1.000  C
  C57      1.0000 0.31266  0.56132  0.80665  Biso   1.000  C
  C58      1.0000 0.26257  0.61359  0.85457  Biso   1.000  C
  C59      1.0000 0.31266  0.68685  0.68112  Biso   1.000  C
  C60      1.0000 0.26257  0.73477  0.73339  Biso   1.000  C
  C61      1.0000 0.83091  0.16861  0.28841  Biso   1.000  C
  C62      1.0000 0.87883  0.11851  0.23831  Biso   1.000  C
  C63      1.0000 0.70537  0.16861  0.28841  Biso   1.000  C
  C64      1.0000 0.75764  0.11851  0.23831  Biso   1.000  C
  C65      1.0000 0.70537  0.68685  0.28841  Biso   1.000  C
  C66      1.0000 0.75764  0.73477  0.23831  Biso   1.000  C
  C67      1.0000 0.83091  0.56132  0.28841  Biso   1.000  C
  C68      1.0000 0.87883  0.61359  0.23831  Biso   1.000  C
  C69      1.0000 0.31266  0.16861  0.80665  Biso   1.000  C
  C70      1.0000 0.26257  0.11851  0.85457  Biso   1.000  C
  C71      1.0000 0.31266  0.16861  0.68112  Biso   1.000  C
  C72      1.0000 0.26257  0.11851  0.73339  Biso   1.000  C
  C73      1.0000 0.68052  0.25623  0.65627  Biso   1.000  C
  C74      1.0000 0.74388  0.19286  0.71963  Biso   1.000  C
  C75      1.0000 0.90021  0.03654  0.87596  Biso   1.000  C
  C76      1.0000 0.85021  0.08653  0.82596  Biso   1.000  C
  C77      1.0000 0.40028  0.53647  0.37603  Biso   1.000  C
  C78      1.0000 0.33692  0.59983  0.31266  Biso   1.000  C
  C79      1.0000 0.18059  0.75616  0.15634  Biso   1.000  C
  C80      1.0000 0.23059  0.70616  0.20633  Biso   1.000  C
  C81      1.0000 0.40028  0.53647  0.65627  Biso   1.000  C
  C82      1.0000 0.33692  0.59983  0.71963  Biso   1.000  C
  C83      1.0000 0.18059  0.75616  0.87596  Biso   1.000  C
  C84      1.0000 0.23059  0.70616  0.82596  Biso   1.000  C
  C85      1.0000 0.68052  0.25623  0.37603  Biso   1.000  C
  C86      1.0000 0.74388  0.19286  0.31266  Biso   1.000  C
  C87      1.0000 0.90021  0.03654  0.15634  Biso   1.000  C
  C88      1.0000 0.85021  0.08653  0.20633  Biso   1.000  C
  C89      1.0000 0.68052  0.53647  0.37603  Biso   1.000  C
  C90      1.0000 0.74388  0.59983  0.31266  Biso   1.000  C
  C91      1.0000 0.90021  0.75616  0.15634  Biso   1.000  C
  C92      1.0000 0.85021  0.70616  0.20633  Biso   1.000  C
  C93      1.0000 0.40028  0.25623  0.65627  Biso   1.000  C
  C94      1.0000 0.33692  0.19286  0.71963  Biso   1.000  C
  C95      1.0000 0.18059  0.03654  0.87596  Biso   1.000  C
  C96      1.0000 0.23059  0.08653  0.82596  Biso   1.000  C
  O27      1.0000 0.04040  0.89635  0.01615  Biso   1.000  O
  O28      1.0000 0.55534  0.39137  0.51117  Biso   1.000  O
  O29      1.0000 0.71893  0.27801  0.57429  Biso   1.000  O
  O30      1.0000 0.98466  0.01188  0.84081  Biso   1.000  O
  O31      1.0000 0.59854  0.27801  0.69468  Biso   1.000  O
  O32      1.0000 0.86506  0.01188  0.96041  Biso   1.000  O
  O33      1.0000 0.42206  0.57488  0.39781  Biso   1.000  O
  O34      1.0000 0.15594  0.84061  0.13168  Biso   1.000  O
  O35      1.0000 0.42206  0.45449  0.39781  Biso   1.000  O
  O36      1.0000 0.15594  0.72101  0.13168  Biso   1.000  O
  O37      1.0000 0.42206  0.45449  0.69468  Biso   1.000  O
  O38      1.0000 0.15594  0.72101  0.96041  Biso   1.000  O
  O39      1.0000 0.42206  0.57488  0.57429  Biso   1.000  O
  O40      1.0000 0.15594  0.84061  0.84081  Biso   1.000  O
  O41      1.0000 0.71893  0.27801  0.39781  Biso   1.000  O
  O42      1.0000 0.98466  0.01188  0.13168  Biso   1.000  O
  O43      1.0000 0.59854  0.27801  0.39781  Biso   1.000  O
  O44      1.0000 0.86506  0.01188  0.13168  Biso   1.000  O
  O45      1.0000 0.59854  0.57488  0.39781  Biso   1.000  O
  O46      1.0000 0.86506  0.84061  0.13168  Biso   1.000  O
  O47      1.0000 0.71893  0.45449  0.39781  Biso   1.000  O
  O48      1.0000 0.98466  0.72101  0.13168  Biso   1.000  O
  O49      1.0000 0.42206  0.27801  0.69468  Biso   1.000  O
  O50      1.0000 0.15594  0.01188  0.96041  Biso   1.000  O
  O51      1.0000 0.42206  0.27801  0.57429  Biso   1.000  O
