data_image0
_cell_length_a       18.2115
_cell_length_b       18.2115
_cell_length_c       18.2115
_cell_angle_alpha    60
_cell_angle_beta     60
_cell_angle_gamma    60

_symmetry_space_group_name_H-M    "P 1"
_symmetry_int_tables_number       1

loop_
  _symmetry_equiv_pos_as_xyz
  'x, y, z'

loop_
  _atom_site_label
  _atom_site_occupancy
  _atom_site_fract_x
  _atom_site_fract_y
  _atom_site_fract_z
  _atom_site_thermal_displace_type
  _atom_site_B_iso_or_equiv
  _atom_site_type_symbol
  C1       1.0000 0.29361  0.29361  0.11917  Biso   1.000  C
  C2       1.0000 0.29361  0.29361  0.29361  Biso   1.000  C
  C3       1.0000 0.11917  0.29361  0.29361  Biso   1.000  C
  C4       1.0000 0.29361  0.11917  0.29361  Biso   1.000  C
  C5       1.0000 0.70639  0.70639  0.88083  Biso   1.000  C
  C6       1.0000 0.70639  0.70639  0.70639  Biso   1.000  C
  C7       1.0000 0.70639  0.88083  0.70639  Biso   1.000  C
  C8       1.0000 0.88083  0.70639  0.70639  Biso   1.000  C
  C9       1.0000 0.45530  0.45530  0.93770  Biso   1.000  C
  C10      1.0000 0.45530  0.45530  0.15170  Biso   1.000  C
  C11      1.0000 0.93770  0.15170  0.45530  Biso   1.000  C
  C12      1.0000 0.15170  0.93770  0.45530  Biso   1.000  C
  C13      1.0000 0.45530  0.93770  0.15170  Biso   1.000  C
  C14      1.0000 0.45530  0.15170  0.93770  Biso   1.000  C
  C15      1.0000 0.93770  0.45530  0.45530  Biso   1.000  C
  C16      1.0000 0.15170  0.45530  0.45530  Biso   1.000  C
  C17      1.0000 0.45530  0.15170  0.45530  Biso   1.000  C
  C18      1.0000 0.45530  0.93770  0.45530  Biso   1.000  C
  C19      1.0000 0.93770  0.45530  0.15170  Biso   1.000  C
  C20      1.0000 0.15170  0.45530  0.93770  Biso   1.000  C
  C21      1.0000 0.54470  0.54470  0.06230  Biso   1.000  C
  C22      1.0000 0.54470  0.54470  0.84830  Biso   1.000  C
  C23      1.0000 0.84830  0.06230  0.54470  Biso   1.000  C
  C24      1.0000 0.06230  0.84830  0.54470  Biso   1.000  C
  C25      1.0000 0.06230  0.54470  0.84830  Biso   1.000  C
  C26      1.0000 0.84830  0.54470  0.06230  Biso   1.000  C
  C27      1.0000 0.54470  0.06230  0.54470  Biso   1.000  C
  C28      1.0000 0.54470  0.84830  0.54470  Biso   1.000  C
  C29      1.0000 0.84830  0.54470  0.54470  Biso   1.000  C
  C30      1.0000 0.06230  0.54470  0.54470  Biso   1.000  C
  C31      1.0000 0.54470  0.06230  0.84830  Biso   1.000  C
  C32      1.0000 0.54470  0.84830  0.06230  Biso   1.000  C
  C33      1.0000 0.47300  0.47300  0.96450  Biso   1.000  C
  C34      1.0000 0.47300  0.47300  0.08950  Biso   1.000  C
  C35      1.0000 0.96450  0.08950  0.47300  Biso   1.000  C
  C36      1.0000 0.08950  0.96450  0.47300  Biso   1.000  C
  C37      1.0000 0.47300  0.96450  0.08950  Biso   1.000  C
  C38      1.0000 0.47300  0.08950  0.96450  Biso   1.000  C
  C39      1.0000 0.96450  0.47300  0.47300  Biso   1.000  C
  C40      1.0000 0.08950  0.47300  0.47300  Biso   1.000  C
  C41      1.0000 0.47300  0.08950  0.47300  Biso   1.000  C
  C42      1.0000 0.47300  0.96450  0.47300  Biso   1.000  C
  C43      1.0000 0.96450  0.47300  0.08950  Biso   1.000  C
  C44      1.0000 0.08950  0.47300  0.96450  Biso   1.000  C
  C45      1.0000 0.52700  0.52700  0.03550  Biso   1.000  C
  C46      1.0000 0.52700  0.52700  0.91050  Biso   1.000  C
  C47      1.0000 0.91050  0.03550  0.52700  Biso   1.000  C
  C48      1.0000 0.03550  0.91050  0.52700  Biso   1.000  C
  C49      1.0000 0.03550  0.52700  0.91050  Biso   1.000  C
  C50      1.0000 0.91050  0.52700  0.03550  Biso   1.000  C
  C51      1.0000 0.52700  0.03550  0.52700  Biso   1.000  C
  C52      1.0000 0.52700  0.91050  0.52700  Biso   1.000  C
  C53      1.0000 0.91050  0.52700  0.52700  Biso   1.000  C
  C54      1.0000 0.03550  0.52700  0.52700  Biso   1.000  C
  C55      1.0000 0.52700  0.03550  0.91050  Biso   1.000  C
  C56      1.0000 0.52700  0.91050  0.03550  Biso   1.000  C
  C57      1.0000 0.38860  0.38860  0.11140  Biso   1.000  C
  C58      1.0000 0.44600  0.44600  0.05400  Biso   1.000  C
  C59      1.0000 0.11140  0.11140  0.38860  Biso   1.000  C
  C60      1.0000 0.05400  0.05400  0.44600  Biso   1.000  C
  C61      1.0000 0.38860  0.11140  0.11140  Biso   1.000  C
  C62      1.0000 0.44600  0.05400  0.05400  Biso   1.000  C
  C63      1.0000 0.11140  0.38860  0.38860  Biso   1.000  C
  C64      1.0000 0.05400  0.44600  0.44600  Biso   1.000  C
  C65      1.0000 0.38860  0.11140  0.38860  Biso   1.000  C
  C66      1.0000 0.44600  0.05400  0.44600  Biso   1.000  C
  C67      1.0000 0.11140  0.38860  0.11140  Biso   1.000  C
  C68      1.0000 0.05400  0.44600  0.05400  Biso   1.000  C
  C69      1.0000 0.61140  0.61140  0.88860  Biso   1.000  C
  C70      1.0000 0.55400  0.55400  0.94600  Biso   1.000  C
  C71      1.0000 0.88860  0.88860  0.61140  Biso   1.000  C
  C72      1.0000 0.94600  0.94600  0.55400  Biso   1.000  C
  C73      1.0000 0.88860  0.61140  0.88860  Biso   1.000  C
  C74      1.0000 0.94600  0.55400  0.94600  Biso   1.000  C
  C75      1.0000 0.61140  0.88860  0.61140  Biso   1.000  C
  C76      1.0000 0.55400  0.94600  0.55400  Biso   1.000  C
  C77      1.0000 0.88860  0.61140  0.61140  Biso   1.000  C
  C78      1.0000 0.94600  0.55400  0.55400  Biso   1.000  C
  C79      1.0000 0.61140  0.88860  0.88860  Biso   1.000  C
  C80      1.0000 0.55400  0.94600  0.94600  Biso   1.000  C
  C81      1.0000 0.25000  0.25000  0.25000  Biso   1.000  C
  C82      1.0000 0.75000  0.75000  0.75000  Biso   1.000  C
  C83      1.0000 0.36611  0.36611  0.07317  Biso   1.000  C
  C84      1.0000 0.36611  0.36611  0.19461  Biso   1.000  C
  C85      1.0000 0.07317  0.19461  0.36611  Biso   1.000  C
  C86      1.0000 0.19461  0.07317  0.36611  Biso   1.000  C
  C87      1.0000 0.36611  0.07317  0.19461  Biso   1.000  C
  C88      1.0000 0.36611  0.19461  0.07317  Biso   1.000  C
  C89      1.0000 0.07317  0.36611  0.36611  Biso   1.000  C
  C90      1.0000 0.19461  0.36611  0.36611  Biso   1.000  C
  C91      1.0000 0.36611  0.19461  0.36611  Biso   1.000  C
  C92      1.0000 0.36611  0.07317  0.36611  Biso   1.000  C
  C93      1.0000 0.07317  0.36611  0.19461  Biso   1.000  C
  C94      1.0000 0.19461  0.36611  0.07317  Biso   1.000  C
  C95      1.0000 0.63389  0.63389  0.92683  Biso   1.000  C
  C96      1.0000 0.63389  0.63389  0.80539  Biso   1.000  C
  C97      1.0000 0.80539  0.92683  0.63389  Biso   1.000  C
  C98      1.0000 0.92683  0.80539  0.63389  Biso   1.000  C
  C99      1.0000 0.92683  0.63389  0.80539  Biso   1.000  C
  C100     1.0000 0.80539  0.63389  0.92683  Biso   1.000  C
  C101     1.0000 0.63389  0.92683  0.63389  Biso   1.000  C
  C102     1.0000 0.63389  0.80539  0.63389  Biso   1.000  C
  C103     1.0000 0.80539  0.63389  0.63389  Biso   1.000  C
  C104     1.0000 0.92683  0.63389  0.63389  Biso   1.000  C
  C105     1.0000 0.63389  0.92683  0.80539  Biso   1.000  C
  C106     1.0000 0.63389  0.80539  0.92683  Biso   1.000  C
  O1       1.0000 0.00552  0.84284  0.13450  Biso   1.000  O
  O2       1.0000 0.83237  0.01599  0.13450  Biso   1.000  O
  O3       1.0000 0.42183  0.43230  0.72396  Biso   1.000  O
  O4       1.0000 0.00552  0.01599  0.13450  Biso   1.000  O
  O5       1.0000 0.42183  0.60545  0.55081  Biso   1.000  O
  O6       1.0000 0.42183  0.43230  0.55081  Biso   1.000  O
  O7       1.0000 0.59498  0.43230  0.55081  Biso   1.000  O
  O8       1.0000 0.00552  0.01599  0.96135  Biso   1.000  O
  O9       1.0000 0.62708  0.76083  0.37049  Biso   1.000  O
  O10      1.0000 0.18584  0.68746  0.31482  Biso   1.000  O
  O11      1.0000 0.75036  0.25198  0.37049  Biso   1.000  O
  O12      1.0000 0.15720  0.77773  0.89624  Biso   1.000  O
  O13      1.0000 0.62708  0.25198  0.87934  Biso   1.000  O
  O14      1.0000 0.76727  0.77773  0.28618  Biso   1.000  O
  O15      1.0000 0.60163  0.61209  0.45759  Biso   1.000  O
  O16      1.0000 0.67699  0.81074  0.31482  Biso   1.000  O
  O17      1.0000 0.80027  0.68746  0.31482  Biso   1.000  O
  O18      1.0000 0.15720  0.16767  0.89624  Biso   1.000  O
  O19      1.0000 0.15720  0.77773  0.28618  Biso   1.000  O
  O20      1.0000 0.24151  0.76083  0.75606  Biso   1.000  O
  O21      1.0000 0.24151  0.63755  0.37049  Biso   1.000  O
  O22      1.0000 0.09874  0.83619  0.22772  Biso   1.000  O
  O23      1.0000 0.82573  0.10921  0.95471  Biso   1.000  O
  O24      1.0000 0.60163  0.33908  0.45759  Biso   1.000  O
  O25      1.0000 0.82573  0.10921  0.22772  Biso   1.000  O
  O26      1.0000 0.82573  0.83619  0.22772  Biso   1.000  O
  O27      1.0000 0.75036  0.63755  0.37049  Biso   1.000  O
  O28      1.0000 0.80027  0.19631  0.31482  Biso   1.000  O
  O29      1.0000 0.32861  0.61209  0.45759  Biso   1.000  O
  O30      1.0000 0.67699  0.19631  0.31482  Biso   1.000  O
  O31      1.0000 0.24151  0.63755  0.87934  Biso   1.000  O
  O32      1.0000 0.09874  0.10921  0.95471  Biso   1.000  O
  O33      1.0000 0.67699  0.19631  0.92925  Biso   1.000  O
  O34      1.0000 0.60163  0.33908  0.73060  Biso   1.000  O
  O35      1.0000 0.27015  0.67056  0.39913  Biso   1.000  O
  O36      1.0000 0.62708  0.25198  0.37049  Biso   1.000  O
  O37      1.0000 0.18584  0.19631  0.80597  Biso   1.000  O
  O38      1.0000 0.09874  0.83619  0.95471  Biso   1.000  O
  O39      1.0000 0.75036  0.25198  0.75606  Biso   1.000  O
  O40      1.0000 0.18584  0.19631  0.92925  Biso   1.000  O
  O41      1.0000 0.66009  0.28062  0.78907  Biso   1.000  O
  O42      1.0000 0.24151  0.76083  0.37049  Biso   1.000  O
  O43      1.0000 0.24151  0.25198  0.75606  Biso   1.000  O
  O44      1.0000 0.32861  0.61209  0.73060  Biso   1.000  O
  O45      1.0000 0.24151  0.25198  0.87934  Biso   1.000  O
  O46      1.0000 0.18584  0.68746  0.92925  Biso   1.000  O
  O47      1.0000 0.18584  0.81074  0.80597  Biso   1.000  O
  O48      1.0000 0.76727  0.16767  0.28618  Biso   1.000  O
  O49      1.0000 0.18584  0.81074  0.31482  Biso   1.000  O
  O50      1.0000 0.66009  0.28062  0.39913  Biso   1.000  O
  O51      1.0000 0.27015  0.67056  0.78907  Biso   1.000  O
  O52      1.0000 0.32861  0.33908  0.73060  Biso   1.000  O
  O53      1.0000 0.27015  0.28062  0.78907  Biso   1.000  O
  O54      1.0000 0.76727  0.16767  0.89624  Biso   1.000  O
  O55      1.0000 0.80027  0.19631  0.80597  Biso   1.000  O
  O56      1.0000 0.66009  0.67056  0.39913  Biso   1.000  O
  O57      1.0000 0.34939  0.65433  0.47837  Biso   1.000  O
  O58      1.0000 0.34939  0.65433  0.64681  Biso   1.000  O
  O59      1.0000 0.07796  0.79396  0.20694  Biso   1.000  O
  O60      1.0000 0.51783  0.35986  0.77284  Biso   1.000  O
  O61      1.0000 0.34939  0.35986  0.77284  Biso   1.000  O
  O62      1.0000 0.07796  0.79396  0.03850  Biso   1.000  O
  O63      1.0000 0.90952  0.08843  0.91247  Biso   1.000  O
  O64      1.0000 0.07796  0.08843  0.91247  Biso   1.000  O
  O65      1.0000 0.34939  0.52830  0.47837  Biso   1.000  O
  O66      1.0000 0.64386  0.52830  0.47837  Biso   1.000  O
  O67      1.0000 0.07796  0.91999  0.20694  Biso   1.000  O
  O68      1.0000 0.34939  0.35986  0.64681  Biso   1.000  O
  O69      1.0000 0.90952  0.08843  0.20694  Biso   1.000  O
  O70      1.0000 0.78349  0.91999  0.20694  Biso   1.000  O
  O71      1.0000 0.78349  0.08843  0.20694  Biso   1.000  O
  O72      1.0000 0.34939  0.52830  0.77284  Biso   1.000  O
  O73      1.0000 0.46512  0.47559  0.59410  Biso   1.000  O
  O74      1.0000 0.51783  0.65433  0.47837  Biso   1.000  O
  O75      1.0000 0.90952  0.79396  0.20694  Biso   1.000  O
  O76      1.0000 0.78349  0.08843  0.03850  Biso   1.000  O
  O77      1.0000 0.64386  0.35986  0.47837  Biso   1.000  O
  O78      1.0000 0.07796  0.08843  0.03850  Biso   1.000  O
  O79      1.0000 0.96224  0.97270  0.09121  Biso   1.000  O
  O80      1.0000 0.51783  0.35986  0.47837  Biso   1.000  O
  O81      1.0000 0.07796  0.91999  0.91247  Biso   1.000  O
  O82      1.0000 0.64386  0.35986  0.64681  Biso   1.000  O
  O83      1.0000 0.55073  0.79292  0.39262  Biso   1.000  O
  O84      1.0000 0.16595  0.65142  0.29493  Biso   1.000  O
  O85      1.0000 0.78245  0.27411  0.39262  Biso   1.000  O
  O86      1.0000 0.55073  0.27411  0.91143  Biso   1.000  O
  O87      1.0000 0.64491  0.88709  0.29269  Biso   1.000  O
  O88      1.0000 0.87608  0.65142  0.29493  Biso   1.000  O
  O89      1.0000 0.26365  0.79292  0.67971  Biso   1.000  O
  O90      1.0000 0.26365  0.56120  0.39262  Biso   1.000  O
  O91      1.0000 0.78245  0.56120  0.39262  Biso   1.000  O
  O92      1.0000 0.87662  0.17417  0.29269  Biso   1.000  O
  O93      1.0000 0.64491  0.17417  0.29269  Biso   1.000  O
  O94      1.0000 0.26365  0.56120  0.91143  Biso   1.000  O
  O95      1.0000 0.64491  0.17417  0.00560  Biso   1.000  O
  O96      1.0000 0.55073  0.27411  0.39262  Biso   1.000  O
  O97      1.0000 0.16595  0.17642  0.76993  Biso   1.000  O
  O98      1.0000 0.78640  0.27187  0.68025  Biso   1.000  O
  O99      1.0000 0.16595  0.17642  0.00506  Biso   1.000  O
  O100     1.0000 0.26140  0.79687  0.39038  Biso   1.000  O
  O101     1.0000 0.26365  0.27411  0.67971  Biso   1.000  O
  O102     1.0000 0.26365  0.27411  0.91143  Biso   1.000  O
  O103     1.0000 0.16595  0.65142  0.00506  Biso   1.000  O
  O104     1.0000 0.16595  0.88655  0.76993  Biso   1.000  O
  O105     1.0000 0.16595  0.88655  0.29493  Biso   1.000  O
