data_image0
_cell_length_a       18.2751
_cell_length_b       18.2751
_cell_length_c       18.2751
_cell_angle_alpha    60
_cell_angle_beta     60
_cell_angle_gamma    60

_symmetry_space_group_name_H-M    "P 1"
_symmetry_int_tables_number       1

loop_
  _symmetry_equiv_pos_as_xyz
  'x, y, z'

loop_
  _atom_site_label
  _atom_site_occupancy
  _atom_site_fract_x
  _atom_site_fract_y
  _atom_site_fract_z
  _atom_site_thermal_displace_type
  _atom_site_B_iso_or_equiv
  _atom_site_type_symbol
  Zn1      1.0000 0.29350  0.29349  0.11952  Biso   1.000  Zn
  Zn2      1.0000 0.29350  0.29349  0.29349  Biso   1.000  Zn
  Zn3      1.0000 0.11953  0.29349  0.29349  Biso   1.000  Zn
  Zn4      1.0000 0.29350  0.11952  0.29349  Biso   1.000  Zn
  Zn5      1.0000 0.70650  0.70651  0.88048  Biso   1.000  Zn
  Zn6      1.0000 0.70650  0.70651  0.70651  Biso   1.000  Zn
  Zn7      1.0000 0.70650  0.88048  0.70651  Biso   1.000  Zn
  Zn8      1.0000 0.88047  0.70651  0.70651  Biso   1.000  Zn
  H1       1.0000 0.45530  0.45530  0.93570  Biso   1.000  H
  H2       1.0000 0.45530  0.45530  0.15370  Biso   1.000  H
  H3       1.0000 0.93570  0.15370  0.45530  Biso   1.000  H
  H4       1.0000 0.15370  0.93570  0.45530  Biso   1.000  H
  H5       1.0000 0.45530  0.93570  0.15370  Biso   1.000  H
  H6       1.0000 0.45530  0.15370  0.93570  Biso   1.000  H
  H7       1.0000 0.93570  0.45530  0.45530  Biso   1.000  H
  H8       1.0000 0.15370  0.45530  0.45530  Biso   1.000  H
  H9       1.0000 0.45530  0.15370  0.45530  Biso   1.000  H
  H10      1.0000 0.45530  0.93570  0.45530  Biso   1.000  H
  H11      1.0000 0.93570  0.45530  0.15370  Biso   1.000  H
  H12      1.0000 0.15370  0.45530  0.93570  Biso   1.000  H
  H13      1.0000 0.54470  0.54470  0.06430  Biso   1.000  H
  H14      1.0000 0.54470  0.54470  0.84630  Biso   1.000  H
  H15      1.0000 0.84630  0.06430  0.54470  Biso   1.000  H
  H16      1.0000 0.06430  0.84630  0.54470  Biso   1.000  H
  H17      1.0000 0.06430  0.54470  0.84630  Biso   1.000  H
  H18      1.0000 0.84630  0.54470  0.06430  Biso   1.000  H
  H19      1.0000 0.54470  0.06430  0.54470  Biso   1.000  H
  H20      1.0000 0.54470  0.84630  0.54470  Biso   1.000  H
  H21      1.0000 0.84630  0.54470  0.54470  Biso   1.000  H
  H22      1.0000 0.06430  0.54470  0.54470  Biso   1.000  H
  H23      1.0000 0.54470  0.06430  0.84630  Biso   1.000  H
  H24      1.0000 0.54470  0.84630  0.06430  Biso   1.000  H
  C1       1.0000 0.47331  0.47331  0.96231  Biso   1.000  C
  C2       1.0000 0.47331  0.47331  0.09107  Biso   1.000  C
  C3       1.0000 0.96231  0.09107  0.47331  Biso   1.000  C
  C4       1.0000 0.09107  0.96231  0.47331  Biso   1.000  C
  C5       1.0000 0.47331  0.96231  0.09107  Biso   1.000  C
  C6       1.0000 0.47331  0.09107  0.96231  Biso   1.000  C
  C7       1.0000 0.96231  0.47331  0.47331  Biso   1.000  C
  C8       1.0000 0.09107  0.47331  0.47331  Biso   1.000  C
  C9       1.0000 0.47331  0.09107  0.47331  Biso   1.000  C
  C10      1.0000 0.47331  0.96231  0.47331  Biso   1.000  C
  C11      1.0000 0.96231  0.47331  0.09107  Biso   1.000  C
  C12      1.0000 0.09107  0.47331  0.96231  Biso   1.000  C
  C13      1.0000 0.52669  0.52669  0.03769  Biso   1.000  C
  C14      1.0000 0.52669  0.52669  0.90893  Biso   1.000  C
  C15      1.0000 0.90893  0.03769  0.52669  Biso   1.000  C
  C16      1.0000 0.03769  0.90893  0.52669  Biso   1.000  C
  C17      1.0000 0.03769  0.52669  0.90893  Biso   1.000  C
  C18      1.0000 0.90893  0.52669  0.03769  Biso   1.000  C
  C19      1.0000 0.52669  0.03769  0.52669  Biso   1.000  C
  C20      1.0000 0.52669  0.90893  0.52669  Biso   1.000  C
  C21      1.0000 0.90893  0.52669  0.52669  Biso   1.000  C
  C22      1.0000 0.03769  0.52669  0.52669  Biso   1.000  C
  C23      1.0000 0.52669  0.03769  0.90893  Biso   1.000  C
  C24      1.0000 0.52669  0.90893  0.03769  Biso   1.000  C
  C25      1.0000 0.38853  0.38853  0.11147  Biso   1.000  C
  C26      1.0000 0.44625  0.44625  0.05375  Biso   1.000  C
  C27      1.0000 0.11147  0.11147  0.38853  Biso   1.000  C
  C28      1.0000 0.05375  0.05375  0.44625  Biso   1.000  C
  C29      1.0000 0.38853  0.11147  0.11147  Biso   1.000  C
  C30      1.0000 0.44625  0.05375  0.05375  Biso   1.000  C
  C31      1.0000 0.11147  0.38853  0.38853  Biso   1.000  C
  C32      1.0000 0.05375  0.44625  0.44625  Biso   1.000  C
  C33      1.0000 0.38853  0.11147  0.38853  Biso   1.000  C
  C34      1.0000 0.44625  0.05375  0.44625  Biso   1.000  C
  C35      1.0000 0.11147  0.38853  0.11147  Biso   1.000  C
  C36      1.0000 0.05375  0.44625  0.05375  Biso   1.000  C
  C37      1.0000 0.61147  0.61147  0.88853  Biso   1.000  C
  C38      1.0000 0.55375  0.55375  0.94625  Biso   1.000  C
  C39      1.0000 0.88853  0.88853  0.61147  Biso   1.000  C
  C40      1.0000 0.94625  0.94625  0.55375  Biso   1.000  C
  C41      1.0000 0.88853  0.61147  0.88853  Biso   1.000  C
  C42      1.0000 0.94625  0.55375  0.94625  Biso   1.000  C
  C43      1.0000 0.61147  0.88853  0.61147  Biso   1.000  C
  C44      1.0000 0.55375  0.94625  0.55375  Biso   1.000  C
  C45      1.0000 0.88853  0.61147  0.61147  Biso   1.000  C
  C46      1.0000 0.94625  0.55375  0.55375  Biso   1.000  C
  C47      1.0000 0.61147  0.88853  0.88853  Biso   1.000  C
  C48      1.0000 0.55375  0.94625  0.94625  Biso   1.000  C
  O1       1.0000 0.25000  0.25000  0.25000  Biso   1.000  O
  O2       1.0000 0.75000  0.75000  0.75000  Biso   1.000  O
  O3       1.0000 0.36609  0.36609  0.07299  Biso   1.000  O
  O4       1.0000 0.36609  0.36609  0.19483  Biso   1.000  O
  O5       1.0000 0.07299  0.19483  0.36609  Biso   1.000  O
  O6       1.0000 0.19483  0.07299  0.36609  Biso   1.000  O
  O7       1.0000 0.36609  0.07299  0.19483  Biso   1.000  O
  O8       1.0000 0.36609  0.19483  0.07299  Biso   1.000  O
  O9       1.0000 0.07299  0.36609  0.36609  Biso   1.000  O
  O10      1.0000 0.19483  0.36609  0.36609  Biso   1.000  O
  O11      1.0000 0.36609  0.19483  0.36609  Biso   1.000  O
  O12      1.0000 0.36609  0.07299  0.36609  Biso   1.000  O
  O13      1.0000 0.07299  0.36609  0.19483  Biso   1.000  O
  O14      1.0000 0.19483  0.36609  0.07299  Biso   1.000  O
  O15      1.0000 0.63391  0.63391  0.92701  Biso   1.000  O
  O16      1.0000 0.63391  0.63391  0.80517  Biso   1.000  O
  O17      1.0000 0.80517  0.92701  0.63391  Biso   1.000  O
  O18      1.0000 0.92701  0.80517  0.63391  Biso   1.000  O
  O19      1.0000 0.92701  0.63391  0.80517  Biso   1.000  O
  O20      1.0000 0.80517  0.63391  0.92701  Biso   1.000  O
  O21      1.0000 0.63391  0.92701  0.63391  Biso   1.000  O
  O22      1.0000 0.63391  0.80517  0.63391  Biso   1.000  O
  O23      1.0000 0.80517  0.63391  0.63391  Biso   1.000  O
  O24      1.0000 0.92701  0.63391  0.63391  Biso   1.000  O
  O25      1.0000 0.63391  0.92701  0.80517  Biso   1.000  O
  O26      1.0000 0.63391  0.80517  0.92701  Biso   1.000  O
  Zn9      1.0000 0.99292  0.97328  0.87122  Biso   1.000  Zn
  Zn10     1.0000 0.99297  0.14538  0.87117  Biso   1.000  Zn
  Zn11     1.0000 0.16508  0.97328  0.87122  Biso   1.000  Zn
  Zn12     1.0000 0.99297  0.97323  0.04333  Biso   1.000  Zn
  Zn13     1.0000 0.57563  0.56272  0.46068  Biso   1.000  Zn
  Zn14     1.0000 0.57559  0.39062  0.46073  Biso   1.000  Zn
  Zn15     1.0000 0.40348  0.56272  0.46068  Biso   1.000  Zn
  Zn16     1.0000 0.57558  0.56277  0.28857  Biso   1.000  Zn
  C49      1.0000 0.81373  0.17280  0.69297  Biso   1.000  C
  C50      1.0000 0.19271  0.79482  0.69098  Biso   1.000  C
  C51      1.0000 0.81313  0.79581  0.07076  Biso   1.000  C
  C52      1.0000 0.81474  0.31015  0.69198  Biso   1.000  C
  C53      1.0000 0.81274  0.31115  0.07095  Biso   1.000  C
  C54      1.0000 0.19252  0.30996  0.69137  Biso   1.000  C
  C55      1.0000 0.32300  0.79503  0.07075  Biso   1.000  C
  C56      1.0000 0.32400  0.79303  0.69276  Biso   1.000  C
  C57      1.0000 0.32280  0.17281  0.69376  Biso   1.000  C
  C58      1.0000 0.18565  0.79403  0.20810  Biso   1.000  C
  C59      1.0000 0.80766  0.17301  0.20910  Biso   1.000  C
  C60      1.0000 0.80866  0.79342  0.20791  Biso   1.000  C
  C61      1.0000 0.75483  0.36320  0.63893  Biso   1.000  C
  C62      1.0000 0.37585  0.74119  0.64092  Biso   1.000  C
  C63      1.0000 0.75543  0.74019  0.26114  Biso   1.000  C
  C64      1.0000 0.75382  0.22586  0.63992  Biso   1.000  C
  C65      1.0000 0.75582  0.22485  0.26094  Biso   1.000  C
  C66      1.0000 0.37604  0.22605  0.64052  Biso   1.000  C
  C67      1.0000 0.24556  0.74097  0.26115  Biso   1.000  C
  C68      1.0000 0.24455  0.74297  0.63913  Biso   1.000  C
  C69      1.0000 0.24575  0.36319  0.63814  Biso   1.000  C
  C70      1.0000 0.38290  0.74198  0.12380  Biso   1.000  C
  C71      1.0000 0.76090  0.36300  0.12280  Biso   1.000  C
  C72      1.0000 0.75989  0.74258  0.12399  Biso   1.000  C
  C73      1.0000 0.84113  0.21115  0.71938  Biso   1.000  C
  C74      1.0000 0.89940  0.15287  0.77766  Biso   1.000  C
  C75      1.0000 0.23084  0.82144  0.10909  Biso   1.000  C
  C76      1.0000 0.17257  0.87972  0.05081  Biso   1.000  C
  C77      1.0000 0.72743  0.32485  0.61252  Biso   1.000  C
  C78      1.0000 0.66915  0.38313  0.55424  Biso   1.000  C
  C79      1.0000 0.33771  0.71457  0.22281  Biso   1.000  C
  C80      1.0000 0.39599  0.65629  0.28109  Biso   1.000  C
  C81      1.0000 0.84093  0.82124  0.10929  Biso   1.000  C
  C82      1.0000 0.89893  0.87924  0.05129  Biso   1.000  C
  C83      1.0000 0.23104  0.21135  0.71918  Biso   1.000  C
  C84      1.0000 0.17304  0.15335  0.77718  Biso   1.000  C
  C85      1.0000 0.72762  0.71476  0.22261  Biso   1.000  C
  C86      1.0000 0.66962  0.65676  0.28061  Biso   1.000  C
  C87      1.0000 0.33752  0.32466  0.61272  Biso   1.000  C
  C88      1.0000 0.39552  0.38266  0.55472  Biso   1.000  C
  C89      1.0000 0.23124  0.82104  0.71898  Biso   1.000  C
  C90      1.0000 0.17324  0.87904  0.77698  Biso   1.000  C
  C91      1.0000 0.84073  0.21155  0.10949  Biso   1.000  C
  C92      1.0000 0.89873  0.15355  0.05149  Biso   1.000  C
  C93      1.0000 0.33731  0.71497  0.61292  Biso   1.000  C
  C94      1.0000 0.39531  0.65697  0.55492  Biso   1.000  C
  C95      1.0000 0.72783  0.32445  0.22241  Biso   1.000  C
  C96      1.0000 0.66983  0.38245  0.28041  Biso   1.000  C
  O27      1.0000 0.92185  0.06921  0.79851  Biso   1.000  O
  O28      1.0000 0.91993  0.90216  0.96799  Biso   1.000  O
  O29      1.0000 0.08849  0.90180  0.79893  Biso   1.000  O
  O30      1.0000 0.92026  0.19323  0.80010  Biso   1.000  O
  O31      1.0000 0.08973  0.19274  0.79818  Biso   1.000  O
  O32      1.0000 0.92068  0.19359  0.96673  Biso   1.000  O
  O33      1.0000 0.21293  0.90057  0.96715  Biso   1.000  O
  O34      1.0000 0.21243  0.07004  0.80010  Biso   1.000  O
  O35      1.0000 0.21328  0.90099  0.79975  Biso   1.000  O
  O36      1.0000 0.08890  0.90216  0.09117  Biso   1.000  O
  O37      1.0000 0.92185  0.90023  0.09068  Biso   1.000  O
  O38      1.0000 0.92149  0.06879  0.09153  Biso   1.000  O
  O39      1.0000 0.64670  0.46680  0.53338  Biso   1.000  O
  O40      1.0000 0.64863  0.63384  0.36391  Biso   1.000  O
  O41      1.0000 0.48007  0.63420  0.53297  Biso   1.000  O
  O42      1.0000 0.64830  0.34277  0.53180  Biso   1.000  O
  O43      1.0000 0.47882  0.34327  0.53372  Biso   1.000  O
  O44      1.0000 0.64788  0.34241  0.36517  Biso   1.000  O
  O45      1.0000 0.35563  0.63543  0.36475  Biso   1.000  O
  O46      1.0000 0.35613  0.46596  0.53180  Biso   1.000  O
  O47      1.0000 0.35527  0.63502  0.53215  Biso   1.000  O
  O48      1.0000 0.47965  0.63384  0.24072  Biso   1.000  O
  O49      1.0000 0.64670  0.63577  0.24122  Biso   1.000  O
  O50      1.0000 0.64706  0.46721  0.24037  Biso   1.000  O
  O51      1.0000 0.03598  0.01629  0.91424  Biso   1.000  O
  O52      1.0000 0.53257  0.51971  0.41766  Biso   1.000  O
  H25      1.0000 0.11663  0.81761  0.71230  Biso   1.000  H
  H26      1.0000 0.35596  0.81435  0.71556  Biso   1.000  H
  H27      1.0000 0.45192  0.71839  0.61960  Biso   1.000  H
  H28      1.0000 0.21259  0.72165  0.61634  Biso   1.000  H
  H29      1.0000 0.35476  0.09675  0.71680  Biso   1.000  H
  H30      1.0000 0.45210  0.19409  0.61946  Biso   1.000  H
  H31      1.0000 0.83419  0.81885  0.99469  Biso   1.000  H
  H32      1.0000 0.73685  0.72152  0.09203  Biso   1.000  H
  H33      1.0000 0.83720  0.34212  0.71362  Biso   1.000  H
  H34      1.0000 0.83406  0.34311  0.99488  Biso   1.000  H
  H35      1.0000 0.45898  0.72033  0.09183  Biso   1.000  H
  H36      1.0000 0.73810  0.43907  0.09084  Biso   1.000  H
  H37      1.0000 0.11645  0.34192  0.71244  Biso   1.000  H
  H38      1.0000 0.21379  0.43926  0.61510  Biso   1.000  H
  H39      1.0000 0.83170  0.81449  0.23987  Biso   1.000  H
  H40      1.0000 0.73437  0.71715  0.33721  Biso   1.000  H
  H41      1.0000 0.21359  0.71851  0.33723  Biso   1.000  H
  H42      1.0000 0.83045  0.09693  0.24106  Biso   1.000  H
  H43      1.0000 0.73449  0.19289  0.33702  Biso   1.000  H
  H44      1.0000 0.10958  0.81567  0.24007  Biso   1.000  H
  H45      1.0000 0.73136  0.19389  0.61828  Biso   1.000  H
  H46      1.0000 0.83537  0.09673  0.71544  Biso   1.000  H
  H47      1.0000 0.73319  0.43928  0.61646  Biso   1.000  H
