data_image0
_cell_length_a       18.3017
_cell_length_b       18.3017
_cell_length_c       18.3017
_cell_angle_alpha    60
_cell_angle_beta     60
_cell_angle_gamma    60

_symmetry_space_group_name_H-M    "P 1"
_symmetry_int_tables_number       1

loop_
  _symmetry_equiv_pos_as_xyz
  'x, y, z'

loop_
  _atom_site_label
  _atom_site_occupancy
  _atom_site_fract_x
  _atom_site_fract_y
  _atom_site_fract_z
  _atom_site_thermal_displace_type
  _atom_site_B_iso_or_equiv
  _atom_site_type_symbol
  Zn1      1.0000 0.29342  0.29343  0.11972  Biso   1.000  Zn
  Zn2      1.0000 0.29343  0.29342  0.29343  Biso   1.000  Zn
  Zn3      1.0000 0.11972  0.29343  0.29342  Biso   1.000  Zn
  Zn4      1.0000 0.29343  0.11972  0.29343  Biso   1.000  Zn
  Zn5      1.0000 0.70657  0.70658  0.88028  Biso   1.000  Zn
  Zn6      1.0000 0.70657  0.70658  0.70657  Biso   1.000  Zn
  Zn7      1.0000 0.70658  0.88028  0.70657  Biso   1.000  Zn
  Zn8      1.0000 0.88029  0.70657  0.70657  Biso   1.000  Zn
  H1       1.0000 0.45510  0.45510  0.93470  Biso   1.000  H
  H2       1.0000 0.45510  0.45510  0.15510  Biso   1.000  H
  H3       1.0000 0.93470  0.15510  0.45510  Biso   1.000  H
  H4       1.0000 0.15510  0.93470  0.45510  Biso   1.000  H
  H5       1.0000 0.45510  0.93470  0.15510  Biso   1.000  H
  H6       1.0000 0.45510  0.15510  0.93470  Biso   1.000  H
  H7       1.0000 0.93470  0.45510  0.45510  Biso   1.000  H
  H8       1.0000 0.15510  0.45510  0.45510  Biso   1.000  H
  H9       1.0000 0.45510  0.15510  0.45510  Biso   1.000  H
  H10      1.0000 0.45510  0.93470  0.45510  Biso   1.000  H
  H11      1.0000 0.93470  0.45510  0.15510  Biso   1.000  H
  H12      1.0000 0.15510  0.45510  0.93470  Biso   1.000  H
  H13      1.0000 0.54490  0.54490  0.06530  Biso   1.000  H
  H14      1.0000 0.54490  0.54490  0.84490  Biso   1.000  H
  H15      1.0000 0.84490  0.06530  0.54490  Biso   1.000  H
  H16      1.0000 0.06530  0.84490  0.54490  Biso   1.000  H
  H17      1.0000 0.06530  0.54490  0.84490  Biso   1.000  H
  H18      1.0000 0.84490  0.54490  0.06530  Biso   1.000  H
  H19      1.0000 0.54490  0.06530  0.54490  Biso   1.000  H
  H20      1.0000 0.54490  0.84490  0.54490  Biso   1.000  H
  H21      1.0000 0.84490  0.54490  0.54490  Biso   1.000  H
  H22      1.0000 0.06530  0.54490  0.54490  Biso   1.000  H
  H23      1.0000 0.54490  0.06530  0.84490  Biso   1.000  H
  H24      1.0000 0.54490  0.84490  0.06530  Biso   1.000  H
  C1       1.0000 0.47334  0.47334  0.96156  Biso   1.000  C
  C2       1.0000 0.47334  0.47334  0.09176  Biso   1.000  C
  C3       1.0000 0.96156  0.09176  0.47334  Biso   1.000  C
  C4       1.0000 0.09176  0.96156  0.47334  Biso   1.000  C
  C5       1.0000 0.47334  0.96156  0.09176  Biso   1.000  C
  C6       1.0000 0.47334  0.09176  0.96156  Biso   1.000  C
  C7       1.0000 0.96156  0.47334  0.47334  Biso   1.000  C
  C8       1.0000 0.09176  0.47334  0.47334  Biso   1.000  C
  C9       1.0000 0.47334  0.09176  0.47334  Biso   1.000  C
  C10      1.0000 0.47334  0.96156  0.47334  Biso   1.000  C
  C11      1.0000 0.96156  0.47334  0.09176  Biso   1.000  C
  C12      1.0000 0.09176  0.47334  0.96156  Biso   1.000  C
  C13      1.0000 0.52666  0.52666  0.03844  Biso   1.000  C
  C14      1.0000 0.52666  0.52666  0.90824  Biso   1.000  C
  C15      1.0000 0.90824  0.03844  0.52666  Biso   1.000  C
  C16      1.0000 0.03844  0.90824  0.52666  Biso   1.000  C
  C17      1.0000 0.03844  0.52666  0.90824  Biso   1.000  C
  C18      1.0000 0.90824  0.52666  0.03844  Biso   1.000  C
  C19      1.0000 0.52666  0.03844  0.52666  Biso   1.000  C
  C20      1.0000 0.52666  0.90824  0.52666  Biso   1.000  C
  C21      1.0000 0.90824  0.52666  0.52666  Biso   1.000  C
  C22      1.0000 0.03844  0.52666  0.52666  Biso   1.000  C
  C23      1.0000 0.52666  0.03844  0.90824  Biso   1.000  C
  C24      1.0000 0.52666  0.90824  0.03844  Biso   1.000  C
  C25      1.0000 0.38843  0.38843  0.11157  Biso   1.000  C
  C26      1.0000 0.44642  0.44642  0.05358  Biso   1.000  C
  C27      1.0000 0.11157  0.11157  0.38843  Biso   1.000  C
  C28      1.0000 0.05358  0.05358  0.44642  Biso   1.000  C
  C29      1.0000 0.38843  0.11157  0.11157  Biso   1.000  C
  C30      1.0000 0.44642  0.05358  0.05358  Biso   1.000  C
  C31      1.0000 0.11157  0.38843  0.38843  Biso   1.000  C
  C32      1.0000 0.05358  0.44642  0.44642  Biso   1.000  C
  C33      1.0000 0.38843  0.11157  0.38843  Biso   1.000  C
  C34      1.0000 0.44642  0.05358  0.44642  Biso   1.000  C
  C35      1.0000 0.11157  0.38843  0.11157  Biso   1.000  C
  C36      1.0000 0.05358  0.44642  0.05358  Biso   1.000  C
  C37      1.0000 0.61157  0.61157  0.88843  Biso   1.000  C
  C38      1.0000 0.55358  0.55358  0.94642  Biso   1.000  C
  C39      1.0000 0.88843  0.88843  0.61157  Biso   1.000  C
  C40      1.0000 0.94642  0.94642  0.55358  Biso   1.000  C
  C41      1.0000 0.88843  0.61157  0.88843  Biso   1.000  C
  C42      1.0000 0.94642  0.55358  0.94642  Biso   1.000  C
  C43      1.0000 0.61157  0.88843  0.61157  Biso   1.000  C
  C44      1.0000 0.55358  0.94642  0.55358  Biso   1.000  C
  C45      1.0000 0.88843  0.61157  0.61157  Biso   1.000  C
  C46      1.0000 0.94642  0.55358  0.55358  Biso   1.000  C
  C47      1.0000 0.61157  0.88843  0.88843  Biso   1.000  C
  C48      1.0000 0.55358  0.94642  0.94642  Biso   1.000  C
  O1       1.0000 0.25000  0.25000  0.25000  Biso   1.000  O
  O2       1.0000 0.75000  0.75000  0.75000  Biso   1.000  O
  O3       1.0000 0.36609  0.36609  0.07295  Biso   1.000  O
  O4       1.0000 0.36609  0.36609  0.19487  Biso   1.000  O
  O5       1.0000 0.07295  0.19487  0.36609  Biso   1.000  O
  O6       1.0000 0.19487  0.07295  0.36609  Biso   1.000  O
  O7       1.0000 0.36609  0.07295  0.19487  Biso   1.000  O
  O8       1.0000 0.36609  0.19487  0.07295  Biso   1.000  O
  O9       1.0000 0.07295  0.36609  0.36609  Biso   1.000  O
  O10      1.0000 0.19487  0.36609  0.36609  Biso   1.000  O
  O11      1.0000 0.36609  0.19487  0.36609  Biso   1.000  O
  O12      1.0000 0.36609  0.07295  0.36609  Biso   1.000  O
  O13      1.0000 0.07295  0.36609  0.19487  Biso   1.000  O
  O14      1.0000 0.19487  0.36609  0.07295  Biso   1.000  O
  O15      1.0000 0.63391  0.63391  0.92705  Biso   1.000  O
  O16      1.0000 0.63391  0.63391  0.80513  Biso   1.000  O
  O17      1.0000 0.80513  0.92705  0.63391  Biso   1.000  O
  O18      1.0000 0.92705  0.80513  0.63391  Biso   1.000  O
  O19      1.0000 0.92705  0.63391  0.80513  Biso   1.000  O
  O20      1.0000 0.80513  0.63391  0.92705  Biso   1.000  O
  O21      1.0000 0.63391  0.92705  0.63391  Biso   1.000  O
  O22      1.0000 0.63391  0.80513  0.63391  Biso   1.000  O
  O23      1.0000 0.80513  0.63391  0.63391  Biso   1.000  O
  O24      1.0000 0.92705  0.63391  0.63391  Biso   1.000  O
  O25      1.0000 0.63391  0.92705  0.80513  Biso   1.000  O
  O26      1.0000 0.63391  0.80513  0.92705  Biso   1.000  O
  Zn9      1.0000 0.17188  0.97187  0.86996  Biso   1.000  Zn
  Zn10     1.0000 0.58605  0.38603  0.45577  Biso   1.000  Zn
  Zn11     1.0000 0.41217  0.55992  0.45577  Biso   1.000  Zn
  Zn12     1.0000 0.99800  0.14575  0.86996  Biso   1.000  Zn
  Zn13     1.0000 0.99780  0.97167  0.04398  Biso   1.000  Zn
  Zn14     1.0000 0.99793  0.97180  0.86975  Biso   1.000  Zn
  Zn15     1.0000 0.58625  0.56011  0.28175  Biso   1.000  Zn
  Zn16     1.0000 0.58612  0.55999  0.45598  Biso   1.000  Zn
  H25      1.0000 0.83572  0.33088  0.01097  Biso   1.000  H
  H26      1.0000 0.83261  0.11264  0.22430  Biso   1.000  H
  H27      1.0000 0.83933  0.32890  0.70928  Biso   1.000  H
  H28      1.0000 0.83882  0.11147  0.70399  Biso   1.000  H
  H29      1.0000 0.35614  0.11207  0.71107  Biso   1.000  H
  H30      1.0000 0.22703  0.72220  0.31476  Biso   1.000  H
  H31      1.0000 0.44528  0.72530  0.10143  Biso   1.000  H
  H32      1.0000 0.22901  0.71860  0.61645  Biso   1.000  H
  H33      1.0000 0.44644  0.71909  0.62174  Biso   1.000  H
  H34      1.0000 0.44584  0.20178  0.61466  Biso   1.000  H
  H35      1.0000 0.74833  0.20090  0.31476  Biso   1.000  H
  H36      1.0000 0.75144  0.41914  0.10143  Biso   1.000  H
  H37      1.0000 0.74472  0.20288  0.61645  Biso   1.000  H
  H38      1.0000 0.74523  0.42031  0.62174  Biso   1.000  H
  H39      1.0000 0.22791  0.41971  0.61466  Biso   1.000  H
  H40      1.0000 0.35702  0.80958  0.01097  Biso   1.000  H
  H41      1.0000 0.13878  0.80648  0.22430  Biso   1.000  H
  H42      1.0000 0.35504  0.81319  0.70928  Biso   1.000  H
  H43      1.0000 0.13761  0.81269  0.70399  Biso   1.000  H
  H44      1.0000 0.13821  0.33000  0.71107  Biso   1.000  H
  H45      1.0000 0.83701  0.81088  0.01027  Biso   1.000  H
  H46      1.0000 0.83431  0.80817  0.22819  Biso   1.000  H
  H47      1.0000 0.74704  0.72091  0.31546  Biso   1.000  H
  H48      1.0000 0.74975  0.72361  0.09754  Biso   1.000  H
  C49      1.0000 0.90352  0.15544  0.04957  Biso   1.000  C
  C50      1.0000 0.84488  0.21228  0.10981  Biso   1.000  C
  C51      1.0000 0.81886  0.30445  0.07310  Biso   1.000  C
  C52      1.0000 0.81705  0.17468  0.19877  Biso   1.000  C
  C53      1.0000 0.90394  0.15425  0.77370  Biso   1.000  C
  C54      1.0000 0.84819  0.20981  0.71695  Biso   1.000  C
  C55      1.0000 0.82048  0.30328  0.69182  Biso   1.000  C
  C56      1.0000 0.82007  0.17331  0.68843  Biso   1.000  C
  C57      1.0000 0.32991  0.17400  0.69162  Biso   1.000  C
  C58      1.0000 0.40248  0.65439  0.27616  Biso   1.000  C
  C59      1.0000 0.34564  0.71303  0.21592  Biso   1.000  C
  C60      1.0000 0.25346  0.73906  0.25263  Biso   1.000  C
  C61      1.0000 0.38324  0.74086  0.12696  Biso   1.000  C
  C62      1.0000 0.40366  0.65398  0.55203  Biso   1.000  C
  C63      1.0000 0.34811  0.70972  0.60878  Biso   1.000  C
  C64      1.0000 0.25464  0.73744  0.63391  Biso   1.000  C
  C65      1.0000 0.38461  0.73784  0.63730  Biso   1.000  C
  C66      1.0000 0.38391  0.22801  0.63411  Biso   1.000  C
  C67      1.0000 0.68053  0.37635  0.27616  Biso   1.000  C
  C68      1.0000 0.73917  0.31950  0.21592  Biso   1.000  C
  C69      1.0000 0.76519  0.22733  0.25263  Biso   1.000  C
  C70      1.0000 0.76700  0.35711  0.12696  Biso   1.000  C
  C71      1.0000 0.68011  0.37753  0.55203  Biso   1.000  C
  C72      1.0000 0.73586  0.32198  0.60878  Biso   1.000  C
  C73      1.0000 0.76357  0.22851  0.63391  Biso   1.000  C
  C74      1.0000 0.76398  0.35848  0.63730  Biso   1.000  C
  C75      1.0000 0.25414  0.35778  0.63411  Biso   1.000  C
  C76      1.0000 0.18157  0.87739  0.04957  Biso   1.000  C
  C77      1.0000 0.23841  0.81875  0.10981  Biso   1.000  C
  C78      1.0000 0.33059  0.79272  0.07310  Biso   1.000  C
  C79      1.0000 0.20081  0.79092  0.19877  Biso   1.000  C
  C80      1.0000 0.18039  0.87781  0.77370  Biso   1.000  C
  C81      1.0000 0.23594  0.82206  0.71695  Biso   1.000  C
  C82      1.0000 0.32941  0.79434  0.69182  Biso   1.000  C
  C83      1.0000 0.19944  0.79394  0.68843  Biso   1.000  C
  C84      1.0000 0.20014  0.30377  0.69162  Biso   1.000  C
  C85      1.0000 0.90183  0.87570  0.05615  Biso   1.000  C
  C86      1.0000 0.84588  0.81975  0.10901  Biso   1.000  C
  C87      1.0000 0.81936  0.79322  0.07211  Biso   1.000  C
  C88      1.0000 0.81696  0.79082  0.20076  Biso   1.000  C
  C89      1.0000 0.17749  0.15136  0.77889  Biso   1.000  C
  C90      1.0000 0.23753  0.21140  0.71705  Biso   1.000  C
  C91      1.0000 0.68222  0.65608  0.26958  Biso   1.000  C
  C92      1.0000 0.73817  0.71203  0.21672  Biso   1.000  C
  C93      1.0000 0.76470  0.73856  0.25362  Biso   1.000  C
  C94      1.0000 0.76710  0.74096  0.12497  Biso   1.000  C
  C95      1.0000 0.40656  0.38042  0.54684  Biso   1.000  C
  C96      1.0000 0.34652  0.32038  0.60868  Biso   1.000  C
  O27      1.0000 0.92357  0.06997  0.09295  Biso   1.000  O
  O28      1.0000 0.92597  0.19583  0.96709  Biso   1.000  O
  O29      1.0000 0.92329  0.06888  0.79894  Biso   1.000  O
  O30      1.0000 0.92548  0.19434  0.79614  Biso   1.000  O
  O31      1.0000 0.21978  0.06859  0.79844  Biso   1.000  O
  O32      1.0000 0.48795  0.63435  0.23278  Biso   1.000  O
  O33      1.0000 0.36209  0.63195  0.35864  Biso   1.000  O
  O34      1.0000 0.48903  0.63463  0.52679  Biso   1.000  O
  O35      1.0000 0.36357  0.63243  0.52959  Biso   1.000  O
  O36      1.0000 0.48933  0.33814  0.52729  Biso   1.000  O
  O37      1.0000 0.66048  0.46182  0.23278  Biso   1.000  O
  O38      1.0000 0.65808  0.33595  0.35864  Biso   1.000  O
  O39      1.0000 0.66077  0.46290  0.52679  Biso   1.000  O
  O40      1.0000 0.65857  0.33744  0.52959  Biso   1.000  O
  O41      1.0000 0.36427  0.46320  0.52729  Biso   1.000  O
  O42      1.0000 0.09610  0.89744  0.09295  Biso   1.000  O
  O43      1.0000 0.22196  0.89984  0.96709  Biso   1.000  O
  O44      1.0000 0.09502  0.89715  0.79894  Biso   1.000  O
  O45      1.0000 0.22048  0.89935  0.79614  Biso   1.000  O
  O46      1.0000 0.09472  0.19364  0.79844  Biso   1.000  O
  O47      1.0000 0.04126  0.01512  0.91373  Biso   1.000  O
  O48      1.0000 0.92497  0.89883  0.09195  Biso   1.000  O
  O49      1.0000 0.92338  0.89724  0.97177  Biso   1.000  O
  O50      1.0000 0.54279  0.51666  0.41200  Biso   1.000  O
  O51      1.0000 0.65909  0.63295  0.23378  Biso   1.000  O
