data_image0
_cell_length_a       18.2507
_cell_length_b       18.2507
_cell_length_c       18.2507
_cell_angle_alpha    60
_cell_angle_beta     60
_cell_angle_gamma    60

_symmetry_space_group_name_H-M    "P 1"
_symmetry_int_tables_number       1

loop_
  _symmetry_equiv_pos_as_xyz
  'x, y, z'

loop_
  _atom_site_label
  _atom_site_occupancy
  _atom_site_fract_x
  _atom_site_fract_y
  _atom_site_fract_z
  _atom_site_thermal_displace_type
  _atom_site_B_iso_or_equiv
  _atom_site_type_symbol
  C1       1.0000 0.29354  0.29353  0.11940  Biso   1.000  C
  C2       1.0000 0.29354  0.29353  0.29353  Biso   1.000  C
  C3       1.0000 0.11941  0.29353  0.29353  Biso   1.000  C
  C4       1.0000 0.29354  0.11940  0.29353  Biso   1.000  C
  C5       1.0000 0.70646  0.70647  0.88060  Biso   1.000  C
  C6       1.0000 0.70646  0.70647  0.70647  Biso   1.000  C
  C7       1.0000 0.70646  0.88060  0.70647  Biso   1.000  C
  C8       1.0000 0.88059  0.70647  0.70647  Biso   1.000  C
  C9       1.0000 0.45580  0.45580  0.93620  Biso   1.000  C
  C10      1.0000 0.45580  0.45580  0.15220  Biso   1.000  C
  C11      1.0000 0.93620  0.15220  0.45580  Biso   1.000  C
  C12      1.0000 0.15220  0.93620  0.45580  Biso   1.000  C
  C13      1.0000 0.45580  0.93620  0.15220  Biso   1.000  C
  C14      1.0000 0.45580  0.15220  0.93620  Biso   1.000  C
  C15      1.0000 0.93620  0.45580  0.45580  Biso   1.000  C
  C16      1.0000 0.15220  0.45580  0.45580  Biso   1.000  C
  C17      1.0000 0.45580  0.15220  0.45580  Biso   1.000  C
  C18      1.0000 0.45580  0.93620  0.45580  Biso   1.000  C
  C19      1.0000 0.93620  0.45580  0.15220  Biso   1.000  C
  C20      1.0000 0.15220  0.45580  0.93620  Biso   1.000  C
  C21      1.0000 0.54420  0.54420  0.06380  Biso   1.000  C
  C22      1.0000 0.54420  0.54420  0.84780  Biso   1.000  C
  C23      1.0000 0.84780  0.06380  0.54420  Biso   1.000  C
  C24      1.0000 0.06380  0.84780  0.54420  Biso   1.000  C
  C25      1.0000 0.06380  0.54420  0.84780  Biso   1.000  C
  C26      1.0000 0.84780  0.54420  0.06380  Biso   1.000  C
  C27      1.0000 0.54420  0.06380  0.54420  Biso   1.000  C
  C28      1.0000 0.54420  0.84780  0.54420  Biso   1.000  C
  C29      1.0000 0.84780  0.54420  0.54420  Biso   1.000  C
  C30      1.0000 0.06380  0.54420  0.54420  Biso   1.000  C
  C31      1.0000 0.54420  0.06380  0.84780  Biso   1.000  C
  C32      1.0000 0.54420  0.84780  0.06380  Biso   1.000  C
  C33      1.0000 0.47349  0.47349  0.96297  Biso   1.000  C
  C34      1.0000 0.47349  0.47349  0.09005  Biso   1.000  C
  C35      1.0000 0.96297  0.09005  0.47349  Biso   1.000  C
  C36      1.0000 0.09005  0.96297  0.47349  Biso   1.000  C
  C37      1.0000 0.47349  0.96297  0.09005  Biso   1.000  C
  C38      1.0000 0.47349  0.09005  0.96297  Biso   1.000  C
  C39      1.0000 0.96297  0.47349  0.47349  Biso   1.000  C
  C40      1.0000 0.09005  0.47349  0.47349  Biso   1.000  C
  C41      1.0000 0.47349  0.09005  0.47349  Biso   1.000  C
  C42      1.0000 0.47349  0.96297  0.47349  Biso   1.000  C
  C43      1.0000 0.96297  0.47349  0.09005  Biso   1.000  C
  C44      1.0000 0.09005  0.47349  0.96297  Biso   1.000  C
  C45      1.0000 0.52651  0.52651  0.03703  Biso   1.000  C
  C46      1.0000 0.52651  0.52651  0.90995  Biso   1.000  C
  C47      1.0000 0.90995  0.03703  0.52651  Biso   1.000  C
  C48      1.0000 0.03703  0.90995  0.52651  Biso   1.000  C
  C49      1.0000 0.03703  0.52651  0.90995  Biso   1.000  C
  C50      1.0000 0.90995  0.52651  0.03703  Biso   1.000  C
  C51      1.0000 0.52651  0.03703  0.52651  Biso   1.000  C
  C52      1.0000 0.52651  0.90995  0.52651  Biso   1.000  C
  C53      1.0000 0.90995  0.52651  0.52651  Biso   1.000  C
  C54      1.0000 0.03703  0.52651  0.52651  Biso   1.000  C
  C55      1.0000 0.52651  0.03703  0.90995  Biso   1.000  C
  C56      1.0000 0.52651  0.90995  0.03703  Biso   1.000  C
  C57      1.0000 0.38859  0.38859  0.11141  Biso   1.000  C
  C58      1.0000 0.44630  0.44630  0.05370  Biso   1.000  C
  C59      1.0000 0.11141  0.11141  0.38859  Biso   1.000  C
  C60      1.0000 0.05370  0.05370  0.44630  Biso   1.000  C
  C61      1.0000 0.38859  0.11141  0.11141  Biso   1.000  C
  C62      1.0000 0.44630  0.05370  0.05370  Biso   1.000  C
  C63      1.0000 0.11141  0.38859  0.38859  Biso   1.000  C
  C64      1.0000 0.05370  0.44630  0.44630  Biso   1.000  C
  C65      1.0000 0.38859  0.11141  0.38859  Biso   1.000  C
  C66      1.0000 0.44630  0.05370  0.44630  Biso   1.000  C
  C67      1.0000 0.11141  0.38859  0.11141  Biso   1.000  C
  C68      1.0000 0.05370  0.44630  0.05370  Biso   1.000  C
  C69      1.0000 0.61141  0.61141  0.88859  Biso   1.000  C
  C70      1.0000 0.55370  0.55370  0.94630  Biso   1.000  C
  C71      1.0000 0.88859  0.88859  0.61141  Biso   1.000  C
  C72      1.0000 0.94630  0.94630  0.55370  Biso   1.000  C
  C73      1.0000 0.88859  0.61141  0.88859  Biso   1.000  C
  C74      1.0000 0.94630  0.55370  0.94630  Biso   1.000  C
  C75      1.0000 0.61141  0.88859  0.61141  Biso   1.000  C
  C76      1.0000 0.55370  0.94630  0.55370  Biso   1.000  C
  C77      1.0000 0.88859  0.61141  0.61141  Biso   1.000  C
  C78      1.0000 0.94630  0.55370  0.55370  Biso   1.000  C
  C79      1.0000 0.61141  0.88859  0.88859  Biso   1.000  C
  C80      1.0000 0.55370  0.94630  0.94630  Biso   1.000  C
  C81      1.0000 0.25000  0.25000  0.25000  Biso   1.000  C
  C82      1.0000 0.75000  0.75000  0.75000  Biso   1.000  C
  C83      1.0000 0.36605  0.36605  0.07321  Biso   1.000  C
  C84      1.0000 0.36605  0.36605  0.19469  Biso   1.000  C
  C85      1.0000 0.07321  0.19469  0.36605  Biso   1.000  C
  C86      1.0000 0.19469  0.07321  0.36605  Biso   1.000  C
  C87      1.0000 0.36605  0.07321  0.19469  Biso   1.000  C
  C88      1.0000 0.36605  0.19469  0.07321  Biso   1.000  C
  C89      1.0000 0.07321  0.36605  0.36605  Biso   1.000  C
  C90      1.0000 0.19469  0.36605  0.36605  Biso   1.000  C
  C91      1.0000 0.36605  0.19469  0.36605  Biso   1.000  C
  C92      1.0000 0.36605  0.07321  0.36605  Biso   1.000  C
  C93      1.0000 0.07321  0.36605  0.19469  Biso   1.000  C
  C94      1.0000 0.19469  0.36605  0.07321  Biso   1.000  C
  C95      1.0000 0.63395  0.63395  0.92679  Biso   1.000  C
  C96      1.0000 0.63395  0.63395  0.80531  Biso   1.000  C
  C97      1.0000 0.80531  0.92679  0.63395  Biso   1.000  C
  C98      1.0000 0.92679  0.80531  0.63395  Biso   1.000  C
  C99      1.0000 0.92679  0.63395  0.80531  Biso   1.000  C
  C100     1.0000 0.80531  0.63395  0.92679  Biso   1.000  C
  C101     1.0000 0.63395  0.92679  0.63395  Biso   1.000  C
  C102     1.0000 0.63395  0.80531  0.63395  Biso   1.000  C
  C103     1.0000 0.80531  0.63395  0.63395  Biso   1.000  C
  C104     1.0000 0.92679  0.63395  0.63395  Biso   1.000  C
  C105     1.0000 0.63395  0.92679  0.80531  Biso   1.000  C
  C106     1.0000 0.63395  0.80531  0.92679  Biso   1.000  C
  O1       1.0000 0.00551  0.84103  0.13421  Biso   1.000  O
  O2       1.0000 0.00551  0.01496  0.13421  Biso   1.000  O
  O3       1.0000 0.83157  0.01496  0.13421  Biso   1.000  O
  O4       1.0000 0.00551  0.01496  0.96028  Biso   1.000  O
  O5       1.0000 0.42312  0.42648  0.54573  Biso   1.000  O
  O6       1.0000 0.42312  0.60042  0.54573  Biso   1.000  O
  O7       1.0000 0.59706  0.42648  0.54573  Biso   1.000  O
  O8       1.0000 0.42312  0.42648  0.71966  Biso   1.000  O
  O9       1.0000 0.86774  0.65492  0.29616  Biso   1.000  O
  O10      1.0000 0.16745  0.17691  0.99645  Biso   1.000  O
  O11      1.0000 0.64547  0.87720  0.29616  Biso   1.000  O
  O12      1.0000 0.16745  0.17691  0.77417  Biso   1.000  O
  O13      1.0000 0.64547  0.17691  0.99645  Biso   1.000  O
  O14      1.0000 0.16745  0.87720  0.29616  Biso   1.000  O
  O15      1.0000 0.86774  0.17691  0.77417  Biso   1.000  O
  O16      1.0000 0.16745  0.65492  0.29616  Biso   1.000  O
  O17      1.0000 0.16745  0.87720  0.77417  Biso   1.000  O
  O18      1.0000 0.86774  0.17691  0.29616  Biso   1.000  O
  O19      1.0000 0.16745  0.65492  0.99645  Biso   1.000  O
  O20      1.0000 0.64547  0.17691  0.29616  Biso   1.000  O
  O21      1.0000 0.56089  0.26453  0.38378  Biso   1.000  O
  O22      1.0000 0.26118  0.78652  0.68349  Biso   1.000  O
  O23      1.0000 0.78316  0.26453  0.38378  Biso   1.000  O
  O24      1.0000 0.26118  0.56425  0.90577  Biso   1.000  O
  O25      1.0000 0.78316  0.26453  0.68349  Biso   1.000  O
  O26      1.0000 0.26118  0.78652  0.38378  Biso   1.000  O
  O27      1.0000 0.56089  0.26453  0.90577  Biso   1.000  O
  O28      1.0000 0.26118  0.56425  0.38378  Biso   1.000  O
  O29      1.0000 0.26118  0.26453  0.90577  Biso   1.000  O
  O30      1.0000 0.56089  0.78652  0.38378  Biso   1.000  O
  O31      1.0000 0.26118  0.26453  0.68349  Biso   1.000  O
  O32      1.0000 0.78316  0.56425  0.38378  Biso   1.000  O
  O33      1.0000 0.80426  0.68155  0.31458  Biso   1.000  O
  O34      1.0000 0.18588  0.19533  0.93296  Biso   1.000  O
  O35      1.0000 0.67210  0.81371  0.31458  Biso   1.000  O
  O36      1.0000 0.18588  0.19533  0.80080  Biso   1.000  O
  O37      1.0000 0.67210  0.19533  0.93296  Biso   1.000  O
  O38      1.0000 0.18588  0.81371  0.31458  Biso   1.000  O
  O39      1.0000 0.80426  0.19533  0.80080  Biso   1.000  O
  O40      1.0000 0.18588  0.68155  0.31458  Biso   1.000  O
  O41      1.0000 0.18588  0.81371  0.80080  Biso   1.000  O
  O42      1.0000 0.80426  0.19533  0.31458  Biso   1.000  O
  O43      1.0000 0.18588  0.68155  0.93296  Biso   1.000  O
  O44      1.0000 0.67210  0.19533  0.31458  Biso   1.000  O
  O45      1.0000 0.62437  0.24611  0.36536  Biso   1.000  O
  O46      1.0000 0.24275  0.75989  0.74698  Biso   1.000  O
  O47      1.0000 0.75653  0.24611  0.36536  Biso   1.000  O
  O48      1.0000 0.24275  0.62773  0.87914  Biso   1.000  O
  O49      1.0000 0.75653  0.24611  0.74698  Biso   1.000  O
  O50      1.0000 0.24275  0.75989  0.36536  Biso   1.000  O
  O51      1.0000 0.62437  0.24611  0.87914  Biso   1.000  O
  O52      1.0000 0.24275  0.62773  0.36536  Biso   1.000  O
  O53      1.0000 0.24275  0.24611  0.87914  Biso   1.000  O
  O54      1.0000 0.62437  0.75989  0.36536  Biso   1.000  O
  O55      1.0000 0.24275  0.24611  0.74698  Biso   1.000  O
  O56      1.0000 0.75653  0.62773  0.36536  Biso   1.000  O
  O57      1.0000 0.82305  0.83250  0.22971  Biso   1.000  O
  O58      1.0000 0.76524  0.77469  0.28752  Biso   1.000  O
  O59      1.0000 0.10101  0.11046  0.95175  Biso   1.000  O
  O60      1.0000 0.15882  0.16827  0.89394  Biso   1.000  O
  O61      1.0000 0.82305  0.11046  0.95175  Biso   1.000  O
  O62      1.0000 0.76524  0.16827  0.89394  Biso   1.000  O
  O63      1.0000 0.10101  0.83250  0.22971  Biso   1.000  O
  O64      1.0000 0.15882  0.77469  0.28752  Biso   1.000  O
  O65      1.0000 0.10101  0.83250  0.95175  Biso   1.000  O
  O66      1.0000 0.15882  0.77469  0.89394  Biso   1.000  O
  O67      1.0000 0.82305  0.11046  0.22971  Biso   1.000  O
  O68      1.0000 0.76524  0.16827  0.28752  Biso   1.000  O
  O69      1.0000 0.60558  0.33098  0.45023  Biso   1.000  O
  O70      1.0000 0.66339  0.27317  0.39242  Biso   1.000  O
  O71      1.0000 0.32762  0.60894  0.72819  Biso   1.000  O
  O72      1.0000 0.26981  0.66675  0.78600  Biso   1.000  O
  O73      1.0000 0.60558  0.33098  0.72819  Biso   1.000  O
  O74      1.0000 0.66339  0.27317  0.78600  Biso   1.000  O
  O75      1.0000 0.32762  0.60894  0.45023  Biso   1.000  O
  O76      1.0000 0.26981  0.66675  0.39242  Biso   1.000  O
  O77      1.0000 0.32762  0.33098  0.72819  Biso   1.000  O
  O78      1.0000 0.26981  0.27317  0.78600  Biso   1.000  O
  O79      1.0000 0.60558  0.60894  0.45023  Biso   1.000  O
  O80      1.0000 0.66339  0.66675  0.39242  Biso   1.000  O
  O81      1.0000 0.96203  0.97148  0.09073  Biso   1.000  O
  O82      1.0000 0.46660  0.46996  0.58921  Biso   1.000  O
  O83      1.0000 0.90690  0.79326  0.20741  Biso   1.000  O
  O84      1.0000 0.07870  0.08816  0.03560  Biso   1.000  O
  O85      1.0000 0.78381  0.91635  0.20741  Biso   1.000  O
  O86      1.0000 0.07870  0.08816  0.91251  Biso   1.000  O
  O87      1.0000 0.78381  0.08816  0.03560  Biso   1.000  O
  O88      1.0000 0.07870  0.91635  0.20741  Biso   1.000  O
  O89      1.0000 0.90690  0.08816  0.91251  Biso   1.000  O
  O90      1.0000 0.07870  0.79326  0.20741  Biso   1.000  O
  O91      1.0000 0.07870  0.91635  0.91251  Biso   1.000  O
  O92      1.0000 0.90690  0.08816  0.20741  Biso   1.000  O
  O93      1.0000 0.07870  0.79326  0.03560  Biso   1.000  O
  O94      1.0000 0.78381  0.08816  0.20741  Biso   1.000  O
  O95      1.0000 0.52173  0.35328  0.47253  Biso   1.000  O
  O96      1.0000 0.34993  0.64818  0.64434  Biso   1.000  O
  O97      1.0000 0.64482  0.35328  0.47253  Biso   1.000  O
  O98      1.0000 0.34993  0.52509  0.76743  Biso   1.000  O
  O99      1.0000 0.64482  0.35328  0.64434  Biso   1.000  O
  O100     1.0000 0.34993  0.64818  0.47253  Biso   1.000  O
  O101     1.0000 0.52173  0.35328  0.76743  Biso   1.000  O
  O102     1.0000 0.34993  0.52509  0.47253  Biso   1.000  O
  O103     1.0000 0.34993  0.35328  0.76743  Biso   1.000  O
  O104     1.0000 0.52173  0.64818  0.47253  Biso   1.000  O
  O105     1.0000 0.34993  0.35328  0.64434  Biso   1.000  O
