data_image0
_cell_length_a       18.228
_cell_length_b       18.228
_cell_length_c       18.228
_cell_angle_alpha    60
_cell_angle_beta     60
_cell_angle_gamma    60

_symmetry_space_group_name_H-M    "P 1"
_symmetry_int_tables_number       1

loop_
  _symmetry_equiv_pos_as_xyz
  'x, y, z'

loop_
  _atom_site_label
  _atom_site_occupancy
  _atom_site_fract_x
  _atom_site_fract_y
  _atom_site_fract_z
  _atom_site_thermal_displace_type
  _atom_site_B_iso_or_equiv
  _atom_site_type_symbol
  Zn1      1.0000 0.29358  0.29359  0.11924  Biso   1.000  Zn
  Zn2      1.0000 0.29358  0.29359  0.29359  Biso   1.000  Zn
  Zn3      1.0000 0.11923  0.29359  0.29359  Biso   1.000  Zn
  Zn4      1.0000 0.29358  0.11924  0.29359  Biso   1.000  Zn
  Zn5      1.0000 0.70642  0.70641  0.88076  Biso   1.000  Zn
  Zn6      1.0000 0.70642  0.70641  0.70641  Biso   1.000  Zn
  Zn7      1.0000 0.70642  0.88076  0.70641  Biso   1.000  Zn
  Zn8      1.0000 0.88077  0.70641  0.70641  Biso   1.000  Zn
  H1       1.0000 0.45570  0.45570  0.93670  Biso   1.000  H
  H2       1.0000 0.45570  0.45570  0.15190  Biso   1.000  H
  H3       1.0000 0.93670  0.15190  0.45570  Biso   1.000  H
  H4       1.0000 0.15190  0.93670  0.45570  Biso   1.000  H
  H5       1.0000 0.45570  0.93670  0.15190  Biso   1.000  H
  H6       1.0000 0.45570  0.15190  0.93670  Biso   1.000  H
  H7       1.0000 0.93670  0.45570  0.45570  Biso   1.000  H
  H8       1.0000 0.15190  0.45570  0.45570  Biso   1.000  H
  H9       1.0000 0.45570  0.15190  0.45570  Biso   1.000  H
  H10      1.0000 0.45570  0.93670  0.45570  Biso   1.000  H
  H11      1.0000 0.93670  0.45570  0.15190  Biso   1.000  H
  H12      1.0000 0.15190  0.45570  0.93670  Biso   1.000  H
  H13      1.0000 0.54430  0.54430  0.06330  Biso   1.000  H
  H14      1.0000 0.54430  0.54430  0.84810  Biso   1.000  H
  H15      1.0000 0.84810  0.06330  0.54430  Biso   1.000  H
  H16      1.0000 0.06330  0.84810  0.54430  Biso   1.000  H
  H17      1.0000 0.06330  0.54430  0.84810  Biso   1.000  H
  H18      1.0000 0.84810  0.54430  0.06330  Biso   1.000  H
  H19      1.0000 0.54430  0.06330  0.54430  Biso   1.000  H
  H20      1.0000 0.54430  0.84810  0.54430  Biso   1.000  H
  H21      1.0000 0.84810  0.54430  0.54430  Biso   1.000  H
  H22      1.0000 0.06330  0.54430  0.54430  Biso   1.000  H
  H23      1.0000 0.54430  0.06330  0.84810  Biso   1.000  H
  H24      1.0000 0.54430  0.84810  0.06330  Biso   1.000  H
  C1       1.0000 0.47340  0.47340  0.96356  Biso   1.000  C
  C2       1.0000 0.47340  0.47340  0.08964  Biso   1.000  C
  C3       1.0000 0.96356  0.08964  0.47340  Biso   1.000  C
  C4       1.0000 0.08964  0.96356  0.47340  Biso   1.000  C
  C5       1.0000 0.47340  0.96356  0.08964  Biso   1.000  C
  C6       1.0000 0.47340  0.08964  0.96356  Biso   1.000  C
  C7       1.0000 0.96356  0.47340  0.47340  Biso   1.000  C
  C8       1.0000 0.08964  0.47340  0.47340  Biso   1.000  C
  C9       1.0000 0.47340  0.08964  0.47340  Biso   1.000  C
  C10      1.0000 0.47340  0.96356  0.47340  Biso   1.000  C
  C11      1.0000 0.96356  0.47340  0.08964  Biso   1.000  C
  C12      1.0000 0.08964  0.47340  0.96356  Biso   1.000  C
  C13      1.0000 0.52660  0.52660  0.03644  Biso   1.000  C
  C14      1.0000 0.52660  0.52660  0.91036  Biso   1.000  C
  C15      1.0000 0.91036  0.03644  0.52660  Biso   1.000  C
  C16      1.0000 0.03644  0.91036  0.52660  Biso   1.000  C
  C17      1.0000 0.03644  0.52660  0.91036  Biso   1.000  C
  C18      1.0000 0.91036  0.52660  0.03644  Biso   1.000  C
  C19      1.0000 0.52660  0.03644  0.52660  Biso   1.000  C
  C20      1.0000 0.52660  0.91036  0.52660  Biso   1.000  C
  C21      1.0000 0.91036  0.52660  0.52660  Biso   1.000  C
  C22      1.0000 0.03644  0.52660  0.52660  Biso   1.000  C
  C23      1.0000 0.52660  0.03644  0.91036  Biso   1.000  C
  C24      1.0000 0.52660  0.91036  0.03644  Biso   1.000  C
  C25      1.0000 0.38850  0.38850  0.11150  Biso   1.000  C
  C26      1.0000 0.44610  0.44610  0.05390  Biso   1.000  C
  C27      1.0000 0.11150  0.11150  0.38850  Biso   1.000  C
  C28      1.0000 0.05390  0.05390  0.44610  Biso   1.000  C
  C29      1.0000 0.38850  0.11150  0.11150  Biso   1.000  C
  C30      1.0000 0.44610  0.05390  0.05390  Biso   1.000  C
  C31      1.0000 0.11150  0.38850  0.38850  Biso   1.000  C
  C32      1.0000 0.05390  0.44610  0.44610  Biso   1.000  C
  C33      1.0000 0.38850  0.11150  0.38850  Biso   1.000  C
  C34      1.0000 0.44610  0.05390  0.44610  Biso   1.000  C
  C35      1.0000 0.11150  0.38850  0.11150  Biso   1.000  C
  C36      1.0000 0.05390  0.44610  0.05390  Biso   1.000  C
  C37      1.0000 0.61150  0.61150  0.88850  Biso   1.000  C
  C38      1.0000 0.55390  0.55390  0.94610  Biso   1.000  C
  C39      1.0000 0.88850  0.88850  0.61150  Biso   1.000  C
  C40      1.0000 0.94610  0.94610  0.55390  Biso   1.000  C
  C41      1.0000 0.88850  0.61150  0.88850  Biso   1.000  C
  C42      1.0000 0.94610  0.55390  0.94610  Biso   1.000  C
  C43      1.0000 0.61150  0.88850  0.61150  Biso   1.000  C
  C44      1.0000 0.55390  0.94610  0.55390  Biso   1.000  C
  C45      1.0000 0.88850  0.61150  0.61150  Biso   1.000  C
  C46      1.0000 0.94610  0.55390  0.55390  Biso   1.000  C
  C47      1.0000 0.61150  0.88850  0.88850  Biso   1.000  C
  C48      1.0000 0.55390  0.94610  0.94610  Biso   1.000  C
  O1       1.0000 0.25000  0.25000  0.25000  Biso   1.000  O
  O2       1.0000 0.75000  0.75000  0.75000  Biso   1.000  O
  O3       1.0000 0.36610  0.36610  0.07322  Biso   1.000  O
  O4       1.0000 0.36610  0.36610  0.19458  Biso   1.000  O
  O5       1.0000 0.07322  0.19458  0.36610  Biso   1.000  O
  O6       1.0000 0.19458  0.07322  0.36610  Biso   1.000  O
  O7       1.0000 0.36610  0.07322  0.19458  Biso   1.000  O
  O8       1.0000 0.36610  0.19458  0.07322  Biso   1.000  O
  O9       1.0000 0.07322  0.36610  0.36610  Biso   1.000  O
  O10      1.0000 0.19458  0.36610  0.36610  Biso   1.000  O
  O11      1.0000 0.36610  0.19458  0.36610  Biso   1.000  O
  O12      1.0000 0.36610  0.07322  0.36610  Biso   1.000  O
  O13      1.0000 0.07322  0.36610  0.19458  Biso   1.000  O
  O14      1.0000 0.19458  0.36610  0.07322  Biso   1.000  O
  O15      1.0000 0.63390  0.63390  0.92678  Biso   1.000  O
  O16      1.0000 0.63390  0.63390  0.80542  Biso   1.000  O
  O17      1.0000 0.80542  0.92678  0.63390  Biso   1.000  O
  O18      1.0000 0.92678  0.80542  0.63390  Biso   1.000  O
  O19      1.0000 0.92678  0.63390  0.80542  Biso   1.000  O
  O20      1.0000 0.80542  0.63390  0.92678  Biso   1.000  O
  O21      1.0000 0.63390  0.92678  0.63390  Biso   1.000  O
  O22      1.0000 0.63390  0.80542  0.63390  Biso   1.000  O
  O23      1.0000 0.80542  0.63390  0.63390  Biso   1.000  O
  O24      1.0000 0.92678  0.63390  0.63390  Biso   1.000  O
  O25      1.0000 0.63390  0.92678  0.80542  Biso   1.000  O
  O26      1.0000 0.63390  0.80542  0.92678  Biso   1.000  O
  Zn9      1.0000 0.47846  0.34616  0.67190  Biso   1.000  Zn
  Zn10     1.0000 0.65283  0.34616  0.49753  Biso   1.000  Zn
  Zn11     1.0000 0.47846  0.34616  0.49753  Biso   1.000  Zn
  Zn12     1.0000 0.47846  0.52053  0.49753  Biso   1.000  Zn
  Zn13     1.0000 0.07065  0.93167  0.90869  Biso   1.000  Zn
  Zn14     1.0000 0.89628  0.93168  0.08306  Biso   1.000  Zn
  Zn15     1.0000 0.07065  0.75731  0.08305  Biso   1.000  Zn
  Zn16     1.0000 0.07065  0.93168  0.08306  Biso   1.000  Zn
  H25      1.0000 0.62041  0.18417  0.85394  Biso   1.000  H
  H26      1.0000 0.83821  0.18417  0.63614  Biso   1.000  H
  H27      1.0000 0.31981  0.48477  0.33554  Biso   1.000  H
  H28      1.0000 0.31981  0.70257  0.33554  Biso   1.000  H
  H29      1.0000 0.31981  0.70257  0.63614  Biso   1.000  H
  H30      1.0000 0.31981  0.48477  0.85394  Biso   1.000  H
  H31      1.0000 0.62041  0.18417  0.33554  Biso   1.000  H
  H32      1.0000 0.83821  0.18417  0.33554  Biso   1.000  H
  H33      1.0000 0.83821  0.48477  0.33554  Biso   1.000  H
  H34      1.0000 0.62041  0.70257  0.33554  Biso   1.000  H
  H35      1.0000 0.31981  0.18417  0.63614  Biso   1.000  H
  H36      1.0000 0.31981  0.18417  0.85394  Biso   1.000  H
  H37      1.0000 0.92871  0.09367  0.72664  Biso   1.000  H
  H38      1.0000 0.71091  0.09367  0.94444  Biso   1.000  H
  H39      1.0000 0.22931  0.57527  0.24504  Biso   1.000  H
  H40      1.0000 0.22931  0.79307  0.24504  Biso   1.000  H
  H41      1.0000 0.22931  0.09367  0.94444  Biso   1.000  H
  H42      1.0000 0.22931  0.09367  0.72664  Biso   1.000  H
  H43      1.0000 0.92871  0.57527  0.24504  Biso   1.000  H
  H44      1.0000 0.71091  0.79307  0.24504  Biso   1.000  H
  H45      1.0000 0.71091  0.09367  0.24504  Biso   1.000  H
  H46      1.0000 0.92871  0.09367  0.24504  Biso   1.000  H
  H47      1.0000 0.22931  0.57527  0.94444  Biso   1.000  H
  H48      1.0000 0.22931  0.79307  0.72664  Biso   1.000  H
  C49      1.0000 0.68394  0.16587  0.82701  Biso   1.000  C
  C50      1.0000 0.81128  0.16587  0.69968  Biso   1.000  C
  C51      1.0000 0.30151  0.54830  0.31724  Biso   1.000  C
  C52      1.0000 0.30151  0.67564  0.31724  Biso   1.000  C
  C53      1.0000 0.30151  0.67564  0.69968  Biso   1.000  C
  C54      1.0000 0.30151  0.54830  0.82701  Biso   1.000  C
  C55      1.0000 0.68394  0.16587  0.31724  Biso   1.000  C
  C56      1.0000 0.81128  0.16587  0.31724  Biso   1.000  C
  C57      1.0000 0.81128  0.54830  0.31724  Biso   1.000  C
  C58      1.0000 0.68394  0.67564  0.31724  Biso   1.000  C
  C59      1.0000 0.30151  0.16587  0.69968  Biso   1.000  C
  C60      1.0000 0.30151  0.16587  0.82701  Biso   1.000  C
  C61      1.0000 0.86518  0.11197  0.75357  Biso   1.000  C
  C62      1.0000 0.73784  0.11197  0.88091  Biso   1.000  C
  C63      1.0000 0.24761  0.60220  0.26334  Biso   1.000  C
  C64      1.0000 0.24761  0.72954  0.26334  Biso   1.000  C
  C65      1.0000 0.24761  0.11197  0.88091  Biso   1.000  C
  C66      1.0000 0.24761  0.11197  0.75357  Biso   1.000  C
  C67      1.0000 0.86518  0.60220  0.26334  Biso   1.000  C
  C68      1.0000 0.73784  0.72954  0.26334  Biso   1.000  C
  C69      1.0000 0.73784  0.11197  0.26334  Biso   1.000  C
  C70      1.0000 0.86518  0.11197  0.26334  Biso   1.000  C
  C71      1.0000 0.24761  0.60220  0.88091  Biso   1.000  C
  C72      1.0000 0.24761  0.72954  0.75357  Biso   1.000  C
  C73      1.0000 0.66101  0.25080  0.68008  Biso   1.000  C
  C74      1.0000 0.71895  0.19286  0.73802  Biso   1.000  C
  C75      1.0000 0.38310  0.52871  0.40218  Biso   1.000  C
  C76      1.0000 0.32516  0.58665  0.34423  Biso   1.000  C
  C77      1.0000 0.38310  0.52871  0.68008  Biso   1.000  C
  C78      1.0000 0.32516  0.58665  0.73802  Biso   1.000  C
  C79      1.0000 0.66101  0.25080  0.40218  Biso   1.000  C
  C80      1.0000 0.71895  0.19286  0.34423  Biso   1.000  C
  C81      1.0000 0.66101  0.52871  0.40218  Biso   1.000  C
  C82      1.0000 0.71895  0.58665  0.34423  Biso   1.000  C
  C83      1.0000 0.38310  0.25080  0.68008  Biso   1.000  C
  C84      1.0000 0.32516  0.19286  0.73802  Biso   1.000  C
  C85      1.0000 0.88811  0.02704  0.90051  Biso   1.000  C
  C86      1.0000 0.83016  0.08498  0.84257  Biso   1.000  C
  C87      1.0000 0.16601  0.74914  0.17841  Biso   1.000  C
  C88      1.0000 0.22395  0.69119  0.23636  Biso   1.000  C
  C89      1.0000 0.16601  0.02704  0.90051  Biso   1.000  C
  C90      1.0000 0.22395  0.08498  0.84257  Biso   1.000  C
  C91      1.0000 0.88811  0.74914  0.17841  Biso   1.000  C
  C92      1.0000 0.83016  0.69119  0.23636  Biso   1.000  C
  C93      1.0000 0.88811  0.02704  0.17841  Biso   1.000  C
  C94      1.0000 0.83016  0.08498  0.23636  Biso   1.000  C
  C95      1.0000 0.16601  0.74914  0.90051  Biso   1.000  C
  C96      1.0000 0.22395  0.69119  0.84257  Biso   1.000  C
  O27      1.0000 0.52205  0.38976  0.54113  Biso   1.000  O
  O28      1.0000 0.02706  0.88809  0.03946  Biso   1.000  O
  O29      1.0000 0.57750  0.27317  0.71886  Biso   1.000  O
  O30      1.0000 0.69979  0.27317  0.59657  Biso   1.000  O
  O31      1.0000 0.40547  0.44520  0.42454  Biso   1.000  O
  O32      1.0000 0.40547  0.56749  0.42454  Biso   1.000  O
  O33      1.0000 0.40547  0.56749  0.59657  Biso   1.000  O
  O34      1.0000 0.40547  0.44520  0.71886  Biso   1.000  O
  O35      1.0000 0.57750  0.27317  0.42454  Biso   1.000  O
  O36      1.0000 0.69979  0.27317  0.42454  Biso   1.000  O
  O37      1.0000 0.69979  0.44520  0.42454  Biso   1.000  O
  O38      1.0000 0.57750  0.56749  0.42454  Biso   1.000  O
  O39      1.0000 0.40547  0.27317  0.59657  Biso   1.000  O
  O40      1.0000 0.40547  0.27317  0.71886  Biso   1.000  O
  O41      1.0000 0.97161  0.00468  0.86173  Biso   1.000  O
  O42      1.0000 0.84933  0.00468  0.98402  Biso   1.000  O
  O43      1.0000 0.14365  0.71036  0.15605  Biso   1.000  O
  O44      1.0000 0.14365  0.83264  0.15605  Biso   1.000  O
  O45      1.0000 0.14365  0.00468  0.98402  Biso   1.000  O
  O46      1.0000 0.14365  0.00468  0.86173  Biso   1.000  O
  O47      1.0000 0.97161  0.71036  0.15605  Biso   1.000  O
  O48      1.0000 0.84933  0.83264  0.15605  Biso   1.000  O
  O49      1.0000 0.84933  0.00468  0.15605  Biso   1.000  O
  O50      1.0000 0.97161  0.00468  0.15605  Biso   1.000  O
  O51      1.0000 0.14365  0.71036  0.98402  Biso   1.000  O
