data_image0
_cell_length_a       18.228
_cell_length_b       18.228
_cell_length_c       18.228
_cell_angle_alpha    60
_cell_angle_beta     60
_cell_angle_gamma    60

_symmetry_space_group_name_H-M    "P 1"
_symmetry_int_tables_number       1

loop_
  _symmetry_equiv_pos_as_xyz
  'x, y, z'

loop_
  _atom_site_label
  _atom_site_occupancy
  _atom_site_fract_x
  _atom_site_fract_y
  _atom_site_fract_z
  _atom_site_thermal_displace_type
  _atom_site_B_iso_or_equiv
  _atom_site_type_symbol
  Zn1      1.0000 0.29358  0.29359  0.11924  Biso   1.000  Zn
  Zn2      1.0000 0.29358  0.29359  0.29359  Biso   1.000  Zn
  Zn3      1.0000 0.11923  0.29359  0.29359  Biso   1.000  Zn
  Zn4      1.0000 0.29358  0.11924  0.29359  Biso   1.000  Zn
  Zn5      1.0000 0.70642  0.70641  0.88076  Biso   1.000  Zn
  Zn6      1.0000 0.70642  0.70641  0.70641  Biso   1.000  Zn
  Zn7      1.0000 0.70642  0.88076  0.70641  Biso   1.000  Zn
  Zn8      1.0000 0.88077  0.70641  0.70641  Biso   1.000  Zn
  H1       1.0000 0.45570  0.45570  0.93670  Biso   1.000  H
  H2       1.0000 0.45570  0.45570  0.15190  Biso   1.000  H
  H3       1.0000 0.93670  0.15190  0.45570  Biso   1.000  H
  H4       1.0000 0.15190  0.93670  0.45570  Biso   1.000  H
  H5       1.0000 0.45570  0.93670  0.15190  Biso   1.000  H
  H6       1.0000 0.45570  0.15190  0.93670  Biso   1.000  H
  H7       1.0000 0.93670  0.45570  0.45570  Biso   1.000  H
  H8       1.0000 0.15190  0.45570  0.45570  Biso   1.000  H
  H9       1.0000 0.45570  0.15190  0.45570  Biso   1.000  H
  H10      1.0000 0.45570  0.93670  0.45570  Biso   1.000  H
  H11      1.0000 0.93670  0.45570  0.15190  Biso   1.000  H
  H12      1.0000 0.15190  0.45570  0.93670  Biso   1.000  H
  H13      1.0000 0.54430  0.54430  0.06330  Biso   1.000  H
  H14      1.0000 0.54430  0.54430  0.84810  Biso   1.000  H
  H15      1.0000 0.84810  0.06330  0.54430  Biso   1.000  H
  H16      1.0000 0.06330  0.84810  0.54430  Biso   1.000  H
  H17      1.0000 0.06330  0.54430  0.84810  Biso   1.000  H
  H18      1.0000 0.84810  0.54430  0.06330  Biso   1.000  H
  H19      1.0000 0.54430  0.06330  0.54430  Biso   1.000  H
  H20      1.0000 0.54430  0.84810  0.54430  Biso   1.000  H
  H21      1.0000 0.84810  0.54430  0.54430  Biso   1.000  H
  H22      1.0000 0.06330  0.54430  0.54430  Biso   1.000  H
  H23      1.0000 0.54430  0.06330  0.84810  Biso   1.000  H
  H24      1.0000 0.54430  0.84810  0.06330  Biso   1.000  H
  C1       1.0000 0.47340  0.47340  0.96356  Biso   1.000  C
  C2       1.0000 0.47340  0.47340  0.08964  Biso   1.000  C
  C3       1.0000 0.96356  0.08964  0.47340  Biso   1.000  C
  C4       1.0000 0.08964  0.96356  0.47340  Biso   1.000  C
  C5       1.0000 0.47340  0.96356  0.08964  Biso   1.000  C
  C6       1.0000 0.47340  0.08964  0.96356  Biso   1.000  C
  C7       1.0000 0.96356  0.47340  0.47340  Biso   1.000  C
  C8       1.0000 0.08964  0.47340  0.47340  Biso   1.000  C
  C9       1.0000 0.47340  0.08964  0.47340  Biso   1.000  C
  C10      1.0000 0.47340  0.96356  0.47340  Biso   1.000  C
  C11      1.0000 0.96356  0.47340  0.08964  Biso   1.000  C
  C12      1.0000 0.08964  0.47340  0.96356  Biso   1.000  C
  C13      1.0000 0.52660  0.52660  0.03644  Biso   1.000  C
  C14      1.0000 0.52660  0.52660  0.91036  Biso   1.000  C
  C15      1.0000 0.91036  0.03644  0.52660  Biso   1.000  C
  C16      1.0000 0.03644  0.91036  0.52660  Biso   1.000  C
  C17      1.0000 0.03644  0.52660  0.91036  Biso   1.000  C
  C18      1.0000 0.91036  0.52660  0.03644  Biso   1.000  C
  C19      1.0000 0.52660  0.03644  0.52660  Biso   1.000  C
  C20      1.0000 0.52660  0.91036  0.52660  Biso   1.000  C
  C21      1.0000 0.91036  0.52660  0.52660  Biso   1.000  C
  C22      1.0000 0.03644  0.52660  0.52660  Biso   1.000  C
  C23      1.0000 0.52660  0.03644  0.91036  Biso   1.000  C
  C24      1.0000 0.52660  0.91036  0.03644  Biso   1.000  C
  C25      1.0000 0.38850  0.38850  0.11150  Biso   1.000  C
  C26      1.0000 0.44610  0.44610  0.05390  Biso   1.000  C
  C27      1.0000 0.11150  0.11150  0.38850  Biso   1.000  C
  C28      1.0000 0.05390  0.05390  0.44610  Biso   1.000  C
  C29      1.0000 0.38850  0.11150  0.11150  Biso   1.000  C
  C30      1.0000 0.44610  0.05390  0.05390  Biso   1.000  C
  C31      1.0000 0.11150  0.38850  0.38850  Biso   1.000  C
  C32      1.0000 0.05390  0.44610  0.44610  Biso   1.000  C
  C33      1.0000 0.38850  0.11150  0.38850  Biso   1.000  C
  C34      1.0000 0.44610  0.05390  0.44610  Biso   1.000  C
  C35      1.0000 0.11150  0.38850  0.11150  Biso   1.000  C
  C36      1.0000 0.05390  0.44610  0.05390  Biso   1.000  C
  C37      1.0000 0.61150  0.61150  0.88850  Biso   1.000  C
  C38      1.0000 0.55390  0.55390  0.94610  Biso   1.000  C
  C39      1.0000 0.88850  0.88850  0.61150  Biso   1.000  C
  C40      1.0000 0.94610  0.94610  0.55390  Biso   1.000  C
  C41      1.0000 0.88850  0.61150  0.88850  Biso   1.000  C
  C42      1.0000 0.94610  0.55390  0.94610  Biso   1.000  C
  C43      1.0000 0.61150  0.88850  0.61150  Biso   1.000  C
  C44      1.0000 0.55390  0.94610  0.55390  Biso   1.000  C
  C45      1.0000 0.88850  0.61150  0.61150  Biso   1.000  C
  C46      1.0000 0.94610  0.55390  0.55390  Biso   1.000  C
  C47      1.0000 0.61150  0.88850  0.88850  Biso   1.000  C
  C48      1.0000 0.55390  0.94610  0.94610  Biso   1.000  C
  O1       1.0000 0.25000  0.25000  0.25000  Biso   1.000  O
  O2       1.0000 0.75000  0.75000  0.75000  Biso   1.000  O
  O3       1.0000 0.36610  0.36610  0.07322  Biso   1.000  O
  O4       1.0000 0.36610  0.36610  0.19458  Biso   1.000  O
  O5       1.0000 0.07322  0.19458  0.36610  Biso   1.000  O
  O6       1.0000 0.19458  0.07322  0.36610  Biso   1.000  O
  O7       1.0000 0.36610  0.07322  0.19458  Biso   1.000  O
  O8       1.0000 0.36610  0.19458  0.07322  Biso   1.000  O
  O9       1.0000 0.07322  0.36610  0.36610  Biso   1.000  O
  O10      1.0000 0.19458  0.36610  0.36610  Biso   1.000  O
  O11      1.0000 0.36610  0.19458  0.36610  Biso   1.000  O
  O12      1.0000 0.36610  0.07322  0.36610  Biso   1.000  O
  O13      1.0000 0.07322  0.36610  0.19458  Biso   1.000  O
  O14      1.0000 0.19458  0.36610  0.07322  Biso   1.000  O
  O15      1.0000 0.63390  0.63390  0.92678  Biso   1.000  O
  O16      1.0000 0.63390  0.63390  0.80542  Biso   1.000  O
  O17      1.0000 0.80542  0.92678  0.63390  Biso   1.000  O
  O18      1.0000 0.92678  0.80542  0.63390  Biso   1.000  O
  O19      1.0000 0.92678  0.63390  0.80542  Biso   1.000  O
  O20      1.0000 0.80542  0.63390  0.92678  Biso   1.000  O
  O21      1.0000 0.63390  0.92678  0.63390  Biso   1.000  O
  O22      1.0000 0.63390  0.80542  0.63390  Biso   1.000  O
  O23      1.0000 0.80542  0.63390  0.63390  Biso   1.000  O
  O24      1.0000 0.92678  0.63390  0.63390  Biso   1.000  O
  O25      1.0000 0.63390  0.92678  0.80542  Biso   1.000  O
  O26      1.0000 0.63390  0.80542  0.92678  Biso   1.000  O
  Zn9      1.0000 0.99549  0.97579  0.87347  Biso   1.000  Zn
  Zn10     1.0000 0.99553  0.14834  0.87342  Biso   1.000  Zn
  Zn11     1.0000 0.16809  0.97579  0.87347  Biso   1.000  Zn
  Zn12     1.0000 0.99554  0.97575  0.04602  Biso   1.000  Zn
  Zn13     1.0000 0.57970  0.56418  0.46187  Biso   1.000  Zn
  Zn14     1.0000 0.57966  0.39163  0.46192  Biso   1.000  Zn
  Zn15     1.0000 0.40711  0.56418  0.46187  Biso   1.000  Zn
  Zn16     1.0000 0.57965  0.56423  0.28932  Biso   1.000  Zn
  C49      1.0000 0.81583  0.17583  0.69476  Biso   1.000  C
  C50      1.0000 0.19579  0.79687  0.69276  Biso   1.000  C
  C51      1.0000 0.81523  0.79787  0.07352  Biso   1.000  C
  C52      1.0000 0.81684  0.31095  0.69377  Biso   1.000  C
  C53      1.0000 0.81484  0.31196  0.07372  Biso   1.000  C
  C54      1.0000 0.19560  0.31076  0.69316  Biso   1.000  C
  C55      1.0000 0.32642  0.79708  0.07351  Biso   1.000  C
  C56      1.0000 0.32742  0.79508  0.69455  Biso   1.000  C
  C57      1.0000 0.32622  0.17584  0.69555  Biso   1.000  C
  C58      1.0000 0.19130  0.79608  0.20864  Biso   1.000  C
  C59      1.0000 0.81233  0.17604  0.20964  Biso   1.000  C
  C60      1.0000 0.81333  0.79547  0.20845  Biso   1.000  C
  C61      1.0000 0.75936  0.36414  0.64058  Biso   1.000  C
  C62      1.0000 0.37940  0.74310  0.64258  Biso   1.000  C
  C63      1.0000 0.75997  0.74210  0.26182  Biso   1.000  C
  C64      1.0000 0.75835  0.22903  0.64157  Biso   1.000  C
  C65      1.0000 0.76035  0.22802  0.26162  Biso   1.000  C
  C66      1.0000 0.37959  0.22921  0.64218  Biso   1.000  C
  C67      1.0000 0.24878  0.74289  0.26183  Biso   1.000  C
  C68      1.0000 0.24777  0.74489  0.64079  Biso   1.000  C
  C69      1.0000 0.24897  0.36413  0.63979  Biso   1.000  C
  C70      1.0000 0.38389  0.74389  0.12670  Biso   1.000  C
  C71      1.0000 0.76286  0.36393  0.12570  Biso   1.000  C
  C72      1.0000 0.76186  0.74450  0.12689  Biso   1.000  C
  C73      1.0000 0.84330  0.21428  0.72124  Biso   1.000  C
  C74      1.0000 0.90173  0.15585  0.77967  Biso   1.000  C
  C75      1.0000 0.23402  0.82356  0.11196  Biso   1.000  C
  C76      1.0000 0.17559  0.88199  0.05353  Biso   1.000  C
  C77      1.0000 0.73189  0.32569  0.61410  Biso   1.000  C
  C78      1.0000 0.67346  0.38412  0.55567  Biso   1.000  C
  C79      1.0000 0.34117  0.71641  0.22338  Biso   1.000  C
  C80      1.0000 0.39960  0.65798  0.28181  Biso   1.000  C
  C81      1.0000 0.84311  0.82336  0.11216  Biso   1.000  C
  C82      1.0000 0.90126  0.88151  0.05401  Biso   1.000  C
  C83      1.0000 0.23422  0.21448  0.72104  Biso   1.000  C
  C84      1.0000 0.17607  0.15633  0.77919  Biso   1.000  C
  C85      1.0000 0.73209  0.71661  0.22318  Biso   1.000  C
  C86      1.0000 0.67394  0.65846  0.28133  Biso   1.000  C
  C87      1.0000 0.34098  0.32549  0.61430  Biso   1.000  C
  C88      1.0000 0.39912  0.38364  0.55615  Biso   1.000  C
  C89      1.0000 0.23442  0.82316  0.72084  Biso   1.000  C
  C90      1.0000 0.17627  0.88131  0.77899  Biso   1.000  C
  C91      1.0000 0.84290  0.21468  0.11236  Biso   1.000  C
  C92      1.0000 0.90105  0.15653  0.05421  Biso   1.000  C
  C93      1.0000 0.34077  0.71681  0.61450  Biso   1.000  C
  C94      1.0000 0.39892  0.65866  0.55635  Biso   1.000  C
  C95      1.0000 0.73229  0.32529  0.22298  Biso   1.000  C
  C96      1.0000 0.67414  0.38344  0.28113  Biso   1.000  C
  O27      1.0000 0.92423  0.07197  0.80058  Biso   1.000  O
  O28      1.0000 0.92230  0.90449  0.97049  Biso   1.000  O
  O29      1.0000 0.09130  0.90413  0.80100  Biso   1.000  O
  O30      1.0000 0.92264  0.19632  0.80217  Biso   1.000  O
  O31      1.0000 0.09255  0.19582  0.80024  Biso   1.000  O
  O32      1.0000 0.92306  0.19668  0.96923  Biso   1.000  O
  O33      1.0000 0.21606  0.90290  0.96965  Biso   1.000  O
  O34      1.0000 0.21556  0.07281  0.80217  Biso   1.000  O
  O35      1.0000 0.21642  0.90332  0.80181  Biso   1.000  O
  O36      1.0000 0.09172  0.90449  0.09399  Biso   1.000  O
  O37      1.0000 0.92424  0.90256  0.09350  Biso   1.000  O
  O38      1.0000 0.92387  0.07156  0.09435  Biso   1.000  O
  O39      1.0000 0.65096  0.46800  0.53476  Biso   1.000  O
  O40      1.0000 0.65289  0.63548  0.36485  Biso   1.000  O
  O41      1.0000 0.48389  0.63584  0.53434  Biso   1.000  O
  O42      1.0000 0.65256  0.34366  0.53317  Biso   1.000  O
  O43      1.0000 0.48265  0.34415  0.53510  Biso   1.000  O
  O44      1.0000 0.65214  0.34330  0.36611  Biso   1.000  O
  O45      1.0000 0.35913  0.63707  0.36569  Biso   1.000  O
  O46      1.0000 0.35963  0.46717  0.53317  Biso   1.000  O
  O47      1.0000 0.35877  0.63666  0.53353  Biso   1.000  O
  O48      1.0000 0.48348  0.63548  0.24135  Biso   1.000  O
  O49      1.0000 0.65096  0.63741  0.24184  Biso   1.000  O
  O50      1.0000 0.65132  0.46842  0.24099  Biso   1.000  O
  O51      1.0000 0.03866  0.01892  0.91660  Biso   1.000  O
  O52      1.0000 0.53653  0.52105  0.41874  Biso   1.000  O
  H25      1.0000 0.11952  0.81972  0.71414  Biso   1.000  H
  H26      1.0000 0.35947  0.81646  0.71741  Biso   1.000  H
  H27      1.0000 0.45567  0.72025  0.62120  Biso   1.000  H
  H28      1.0000 0.21573  0.72352  0.61793  Biso   1.000  H
  H29      1.0000 0.35827  0.09958  0.71865  Biso   1.000  H
  H30      1.0000 0.45585  0.19717  0.62106  Biso   1.000  H
  H31      1.0000 0.83635  0.82097  0.99726  Biso   1.000  H
  H32      1.0000 0.73876  0.72338  0.09485  Biso   1.000  H
  H33      1.0000 0.83936  0.34300  0.71546  Biso   1.000  H
  H34      1.0000 0.83622  0.34400  0.99745  Biso   1.000  H
  H35      1.0000 0.46017  0.72220  0.09465  Biso   1.000  H
  H36      1.0000 0.74001  0.44021  0.09366  Biso   1.000  H
  H37      1.0000 0.11934  0.34280  0.71428  Biso   1.000  H
  H38      1.0000 0.21693  0.44039  0.61669  Biso   1.000  H
  H39      1.0000 0.83644  0.81659  0.24049  Biso   1.000  H
  H40      1.0000 0.73885  0.71900  0.33808  Biso   1.000  H
  H41      1.0000 0.21672  0.72037  0.33810  Biso   1.000  H
  H42      1.0000 0.83518  0.09977  0.24168  Biso   1.000  H
  H43      1.0000 0.73898  0.19597  0.33789  Biso   1.000  H
  H44      1.0000 0.11503  0.81778  0.24069  Biso   1.000  H
  H45      1.0000 0.73583  0.19697  0.61988  Biso   1.000  H
  H46      1.0000 0.83753  0.09956  0.71729  Biso   1.000  H
  H47      1.0000 0.73767  0.44041  0.61805  Biso   1.000  H
