data_image0
_cell_length_a       18.2704
_cell_length_b       18.2704
_cell_length_c       18.2704
_cell_angle_alpha    60
_cell_angle_beta     60
_cell_angle_gamma    60

_symmetry_space_group_name_H-M    "P 1"
_symmetry_int_tables_number       1

loop_
  _symmetry_equiv_pos_as_xyz
  'x, y, z'

loop_
  _atom_site_label
  _atom_site_occupancy
  _atom_site_fract_x
  _atom_site_fract_y
  _atom_site_fract_z
  _atom_site_thermal_displace_type
  _atom_site_B_iso_or_equiv
  _atom_site_type_symbol
  C1       1.0000 0.29350  0.29349  0.11952  Biso   1.000  C
  C2       1.0000 0.29350  0.29349  0.29349  Biso   1.000  C
  C3       1.0000 0.11953  0.29349  0.29349  Biso   1.000  C
  C4       1.0000 0.29350  0.11952  0.29349  Biso   1.000  C
  C5       1.0000 0.70650  0.70651  0.88048  Biso   1.000  C
  C6       1.0000 0.70650  0.70651  0.70651  Biso   1.000  C
  C7       1.0000 0.70650  0.88048  0.70651  Biso   1.000  C
  C8       1.0000 0.88047  0.70651  0.70651  Biso   1.000  C
  C9       1.0000 0.45540  0.45540  0.93560  Biso   1.000  C
  C10      1.0000 0.45540  0.45540  0.15360  Biso   1.000  C
  C11      1.0000 0.93560  0.15360  0.45540  Biso   1.000  C
  C12      1.0000 0.15360  0.93560  0.45540  Biso   1.000  C
  C13      1.0000 0.45540  0.93560  0.15360  Biso   1.000  C
  C14      1.0000 0.45540  0.15360  0.93560  Biso   1.000  C
  C15      1.0000 0.93560  0.45540  0.45540  Biso   1.000  C
  C16      1.0000 0.15360  0.45540  0.45540  Biso   1.000  C
  C17      1.0000 0.45540  0.15360  0.45540  Biso   1.000  C
  C18      1.0000 0.45540  0.93560  0.45540  Biso   1.000  C
  C19      1.0000 0.93560  0.45540  0.15360  Biso   1.000  C
  C20      1.0000 0.15360  0.45540  0.93560  Biso   1.000  C
  C21      1.0000 0.54460  0.54460  0.06440  Biso   1.000  C
  C22      1.0000 0.54460  0.54460  0.84640  Biso   1.000  C
  C23      1.0000 0.84640  0.06440  0.54460  Biso   1.000  C
  C24      1.0000 0.06440  0.84640  0.54460  Biso   1.000  C
  C25      1.0000 0.06440  0.54460  0.84640  Biso   1.000  C
  C26      1.0000 0.84640  0.54460  0.06440  Biso   1.000  C
  C27      1.0000 0.54460  0.06440  0.54460  Biso   1.000  C
  C28      1.0000 0.54460  0.84640  0.54460  Biso   1.000  C
  C29      1.0000 0.84640  0.54460  0.54460  Biso   1.000  C
  C30      1.0000 0.06440  0.54460  0.54460  Biso   1.000  C
  C31      1.0000 0.54460  0.06440  0.84640  Biso   1.000  C
  C32      1.0000 0.54460  0.84640  0.06440  Biso   1.000  C
  C33      1.0000 0.47338  0.47338  0.96238  Biso   1.000  C
  C34      1.0000 0.47338  0.47338  0.09086  Biso   1.000  C
  C35      1.0000 0.96238  0.09086  0.47338  Biso   1.000  C
  C36      1.0000 0.09086  0.96238  0.47338  Biso   1.000  C
  C37      1.0000 0.47338  0.96238  0.09086  Biso   1.000  C
  C38      1.0000 0.47338  0.09086  0.96238  Biso   1.000  C
  C39      1.0000 0.96238  0.47338  0.47338  Biso   1.000  C
  C40      1.0000 0.09086  0.47338  0.47338  Biso   1.000  C
  C41      1.0000 0.47338  0.09086  0.47338  Biso   1.000  C
  C42      1.0000 0.47338  0.96238  0.47338  Biso   1.000  C
  C43      1.0000 0.96238  0.47338  0.09086  Biso   1.000  C
  C44      1.0000 0.09086  0.47338  0.96238  Biso   1.000  C
  C45      1.0000 0.52662  0.52662  0.03762  Biso   1.000  C
  C46      1.0000 0.52662  0.52662  0.90914  Biso   1.000  C
  C47      1.0000 0.90914  0.03762  0.52662  Biso   1.000  C
  C48      1.0000 0.03762  0.90914  0.52662  Biso   1.000  C
  C49      1.0000 0.03762  0.52662  0.90914  Biso   1.000  C
  C50      1.0000 0.90914  0.52662  0.03762  Biso   1.000  C
  C51      1.0000 0.52662  0.03762  0.52662  Biso   1.000  C
  C52      1.0000 0.52662  0.90914  0.52662  Biso   1.000  C
  C53      1.0000 0.90914  0.52662  0.52662  Biso   1.000  C
  C54      1.0000 0.03762  0.52662  0.52662  Biso   1.000  C
  C55      1.0000 0.52662  0.03762  0.90914  Biso   1.000  C
  C56      1.0000 0.52662  0.90914  0.03762  Biso   1.000  C
  C57      1.0000 0.38861  0.38861  0.11139  Biso   1.000  C
  C58      1.0000 0.44619  0.44619  0.05381  Biso   1.000  C
  C59      1.0000 0.11139  0.11139  0.38861  Biso   1.000  C
  C60      1.0000 0.05381  0.05381  0.44619  Biso   1.000  C
  C61      1.0000 0.38861  0.11139  0.11139  Biso   1.000  C
  C62      1.0000 0.44619  0.05381  0.05381  Biso   1.000  C
  C63      1.0000 0.11139  0.38861  0.38861  Biso   1.000  C
  C64      1.0000 0.05381  0.44619  0.44619  Biso   1.000  C
  C65      1.0000 0.38861  0.11139  0.38861  Biso   1.000  C
  C66      1.0000 0.44619  0.05381  0.44619  Biso   1.000  C
  C67      1.0000 0.11139  0.38861  0.11139  Biso   1.000  C
  C68      1.0000 0.05381  0.44619  0.05381  Biso   1.000  C
  C69      1.0000 0.61139  0.61139  0.88861  Biso   1.000  C
  C70      1.0000 0.55381  0.55381  0.94619  Biso   1.000  C
  C71      1.0000 0.88861  0.88861  0.61139  Biso   1.000  C
  C72      1.0000 0.94619  0.94619  0.55381  Biso   1.000  C
  C73      1.0000 0.88861  0.61139  0.88861  Biso   1.000  C
  C74      1.0000 0.94619  0.55381  0.94619  Biso   1.000  C
  C75      1.0000 0.61139  0.88861  0.61139  Biso   1.000  C
  C76      1.0000 0.55381  0.94619  0.55381  Biso   1.000  C
  C77      1.0000 0.88861  0.61139  0.61139  Biso   1.000  C
  C78      1.0000 0.94619  0.55381  0.55381  Biso   1.000  C
  C79      1.0000 0.61139  0.88861  0.88861  Biso   1.000  C
  C80      1.0000 0.55381  0.94619  0.94619  Biso   1.000  C
  C81      1.0000 0.25000  0.25000  0.25000  Biso   1.000  C
  C82      1.0000 0.75000  0.75000  0.75000  Biso   1.000  C
  C83      1.0000 0.36607  0.36607  0.07299  Biso   1.000  C
  C84      1.0000 0.36607  0.36607  0.19487  Biso   1.000  C
  C85      1.0000 0.07299  0.19487  0.36607  Biso   1.000  C
  C86      1.0000 0.19487  0.07299  0.36607  Biso   1.000  C
  C87      1.0000 0.36607  0.07299  0.19487  Biso   1.000  C
  C88      1.0000 0.36607  0.19487  0.07299  Biso   1.000  C
  C89      1.0000 0.07299  0.36607  0.36607  Biso   1.000  C
  C90      1.0000 0.19487  0.36607  0.36607  Biso   1.000  C
  C91      1.0000 0.36607  0.19487  0.36607  Biso   1.000  C
  C92      1.0000 0.36607  0.07299  0.36607  Biso   1.000  C
  C93      1.0000 0.07299  0.36607  0.19487  Biso   1.000  C
  C94      1.0000 0.19487  0.36607  0.07299  Biso   1.000  C
  C95      1.0000 0.63393  0.63393  0.92701  Biso   1.000  C
  C96      1.0000 0.63393  0.63393  0.80513  Biso   1.000  C
  C97      1.0000 0.80513  0.92701  0.63393  Biso   1.000  C
  C98      1.0000 0.92701  0.80513  0.63393  Biso   1.000  C
  C99      1.0000 0.92701  0.63393  0.80513  Biso   1.000  C
  C100     1.0000 0.80513  0.63393  0.92701  Biso   1.000  C
  C101     1.0000 0.63393  0.92701  0.63393  Biso   1.000  C
  C102     1.0000 0.63393  0.80513  0.63393  Biso   1.000  C
  C103     1.0000 0.80513  0.63393  0.63393  Biso   1.000  C
  C104     1.0000 0.92701  0.63393  0.63393  Biso   1.000  C
  C105     1.0000 0.63393  0.92701  0.80513  Biso   1.000  C
  C106     1.0000 0.63393  0.80513  0.92701  Biso   1.000  C
  O1       1.0000 0.00551  0.84012  0.13407  Biso   1.000  O
  O2       1.0000 0.00551  0.01344  0.13407  Biso   1.000  O
  O3       1.0000 0.83219  0.01344  0.13407  Biso   1.000  O
  O4       1.0000 0.00551  0.01344  0.96075  Biso   1.000  O
  O5       1.0000 0.41988  0.42643  0.54706  Biso   1.000  O
  O6       1.0000 0.41988  0.59975  0.54706  Biso   1.000  O
  O7       1.0000 0.59320  0.42643  0.54706  Biso   1.000  O
  O8       1.0000 0.41988  0.42643  0.72038  Biso   1.000  O
  O9       1.0000 0.87472  0.65609  0.29148  Biso   1.000  O
  O10      1.0000 0.16291  0.17085  0.00328  Biso   1.000  O
  O11      1.0000 0.64816  0.88265  0.29148  Biso   1.000  O
  O12      1.0000 0.16291  0.17085  0.77672  Biso   1.000  O
  O13      1.0000 0.64816  0.17085  0.00328  Biso   1.000  O
  O14      1.0000 0.16291  0.88265  0.29148  Biso   1.000  O
  O15      1.0000 0.87472  0.17085  0.77672  Biso   1.000  O
  O16      1.0000 0.16291  0.65609  0.29148  Biso   1.000  O
  O17      1.0000 0.16291  0.88265  0.77672  Biso   1.000  O
  O18      1.0000 0.87472  0.17085  0.29148  Biso   1.000  O
  O19      1.0000 0.16291  0.65609  0.00328  Biso   1.000  O
  O20      1.0000 0.64816  0.17085  0.29148  Biso   1.000  O
  O21      1.0000 0.55067  0.26903  0.38966  Biso   1.000  O
  O22      1.0000 0.26247  0.78378  0.67785  Biso   1.000  O
  O23      1.0000 0.77723  0.26903  0.38966  Biso   1.000  O
  O24      1.0000 0.26247  0.55722  0.90441  Biso   1.000  O
  O25      1.0000 0.77723  0.26903  0.67785  Biso   1.000  O
  O26      1.0000 0.26247  0.78378  0.38966  Biso   1.000  O
  O27      1.0000 0.55067  0.26903  0.90441  Biso   1.000  O
  O28      1.0000 0.26247  0.55722  0.38966  Biso   1.000  O
  O29      1.0000 0.26247  0.26903  0.90441  Biso   1.000  O
  O30      1.0000 0.55067  0.78378  0.38966  Biso   1.000  O
  O31      1.0000 0.26247  0.26903  0.67785  Biso   1.000  O
  O32      1.0000 0.77723  0.55722  0.38966  Biso   1.000  O
  O33      1.0000 0.80427  0.68171  0.31389  Biso   1.000  O
  O34      1.0000 0.18533  0.19326  0.93283  Biso   1.000  O
  O35      1.0000 0.67378  0.81220  0.31389  Biso   1.000  O
  O36      1.0000 0.18533  0.19326  0.80234  Biso   1.000  O
  O37      1.0000 0.67378  0.19326  0.93283  Biso   1.000  O
  O38      1.0000 0.18533  0.81220  0.31389  Biso   1.000  O
  O39      1.0000 0.80427  0.19326  0.80234  Biso   1.000  O
  O40      1.0000 0.18533  0.68171  0.31389  Biso   1.000  O
  O41      1.0000 0.18533  0.81220  0.80234  Biso   1.000  O
  O42      1.0000 0.80427  0.19326  0.31389  Biso   1.000  O
  O43      1.0000 0.18533  0.68171  0.93283  Biso   1.000  O
  O44      1.0000 0.67378  0.19326  0.31389  Biso   1.000  O
  O45      1.0000 0.62112  0.24661  0.36724  Biso   1.000  O
  O46      1.0000 0.24006  0.75816  0.74830  Biso   1.000  O
  O47      1.0000 0.75161  0.24661  0.36724  Biso   1.000  O
  O48      1.0000 0.24006  0.62767  0.87879  Biso   1.000  O
  O49      1.0000 0.75161  0.24661  0.74830  Biso   1.000  O
  O50      1.0000 0.24006  0.75816  0.36724  Biso   1.000  O
  O51      1.0000 0.62112  0.24661  0.87879  Biso   1.000  O
  O52      1.0000 0.24006  0.62767  0.36724  Biso   1.000  O
  O53      1.0000 0.24006  0.24661  0.87879  Biso   1.000  O
  O54      1.0000 0.62112  0.75816  0.36724  Biso   1.000  O
  O55      1.0000 0.24006  0.24661  0.74830  Biso   1.000  O
  O56      1.0000 0.75161  0.62767  0.36724  Biso   1.000  O
  O57      1.0000 0.82278  0.83071  0.23013  Biso   1.000  O
  O58      1.0000 0.76624  0.77417  0.28667  Biso   1.000  O
  O59      1.0000 0.10157  0.10950  0.95134  Biso   1.000  O
  O60      1.0000 0.15811  0.16604  0.89480  Biso   1.000  O
  O61      1.0000 0.82278  0.10950  0.95134  Biso   1.000  O
  O62      1.0000 0.76624  0.16604  0.89480  Biso   1.000  O
  O63      1.0000 0.10157  0.83071  0.23013  Biso   1.000  O
  O64      1.0000 0.15811  0.77417  0.28667  Biso   1.000  O
  O65      1.0000 0.10157  0.83071  0.95134  Biso   1.000  O
  O66      1.0000 0.15811  0.77417  0.89480  Biso   1.000  O
  O67      1.0000 0.82278  0.10950  0.23013  Biso   1.000  O
  O68      1.0000 0.76624  0.16604  0.28667  Biso   1.000  O
  O69      1.0000 0.60261  0.33037  0.45100  Biso   1.000  O
  O70      1.0000 0.65915  0.27383  0.39446  Biso   1.000  O
  O71      1.0000 0.32381  0.60916  0.72979  Biso   1.000  O
  O72      1.0000 0.26728  0.66570  0.78633  Biso   1.000  O
  O73      1.0000 0.60261  0.33037  0.72979  Biso   1.000  O
  O74      1.0000 0.65915  0.27383  0.78633  Biso   1.000  O
  O75      1.0000 0.32381  0.60916  0.45100  Biso   1.000  O
  O76      1.0000 0.26728  0.66570  0.39446  Biso   1.000  O
  O77      1.0000 0.32381  0.33037  0.72979  Biso   1.000  O
  O78      1.0000 0.26728  0.27383  0.78633  Biso   1.000  O
  O79      1.0000 0.60261  0.60916  0.45100  Biso   1.000  O
  O80      1.0000 0.65915  0.66570  0.39446  Biso   1.000  O
  O81      1.0000 0.96218  0.97011  0.09074  Biso   1.000  O
  O82      1.0000 0.46321  0.46976  0.59039  Biso   1.000  O
  O83      1.0000 0.90744  0.79329  0.20652  Biso   1.000  O
  O84      1.0000 0.07796  0.08589  0.03600  Biso   1.000  O
  O85      1.0000 0.78535  0.91537  0.20652  Biso   1.000  O
  O86      1.0000 0.07796  0.08589  0.91392  Biso   1.000  O
  O87      1.0000 0.78535  0.08589  0.03600  Biso   1.000  O
  O88      1.0000 0.07796  0.91537  0.20652  Biso   1.000  O
  O89      1.0000 0.90744  0.08589  0.91392  Biso   1.000  O
  O90      1.0000 0.07796  0.79329  0.20652  Biso   1.000  O
  O91      1.0000 0.07796  0.91537  0.91392  Biso   1.000  O
  O92      1.0000 0.90744  0.08589  0.20652  Biso   1.000  O
  O93      1.0000 0.07796  0.79329  0.03600  Biso   1.000  O
  O94      1.0000 0.78535  0.08589  0.20652  Biso   1.000  O
  O95      1.0000 0.51795  0.35398  0.47461  Biso   1.000  O
  O96      1.0000 0.34743  0.64659  0.64513  Biso   1.000  O
  O97      1.0000 0.64003  0.35398  0.47461  Biso   1.000  O
  O98      1.0000 0.34743  0.52450  0.76722  Biso   1.000  O
  O99      1.0000 0.64003  0.35398  0.64513  Biso   1.000  O
  O100     1.0000 0.34743  0.64659  0.47461  Biso   1.000  O
  O101     1.0000 0.51795  0.35398  0.76722  Biso   1.000  O
  O102     1.0000 0.34743  0.52450  0.47461  Biso   1.000  O
  O103     1.0000 0.34743  0.35398  0.76722  Biso   1.000  O
  O104     1.0000 0.51795  0.64659  0.47461  Biso   1.000  O
  O105     1.0000 0.34743  0.35398  0.64513  Biso   1.000  O
