data_image0
_cell_length_a       18.255
_cell_length_b       18.255
_cell_length_c       18.255
_cell_angle_alpha    60
_cell_angle_beta     60
_cell_angle_gamma    60

_symmetry_space_group_name_H-M    "P 1"
_symmetry_int_tables_number       1

loop_
  _symmetry_equiv_pos_as_xyz
  'x, y, z'

loop_
  _atom_site_label
  _atom_site_occupancy
  _atom_site_fract_x
  _atom_site_fract_y
  _atom_site_fract_z
  _atom_site_thermal_displace_type
  _atom_site_B_iso_or_equiv
  _atom_site_type_symbol
  Zn1      1.0000 0.29354  0.29354  0.11938  Biso   1.000  Zn
  Zn2      1.0000 0.29354  0.29354  0.29354  Biso   1.000  Zn
  Zn3      1.0000 0.11938  0.29354  0.29354  Biso   1.000  Zn
  Zn4      1.0000 0.29354  0.11938  0.29354  Biso   1.000  Zn
  Zn5      1.0000 0.70646  0.70646  0.88062  Biso   1.000  Zn
  Zn6      1.0000 0.70646  0.70646  0.70646  Biso   1.000  Zn
  Zn7      1.0000 0.70646  0.88062  0.70646  Biso   1.000  Zn
  Zn8      1.0000 0.88062  0.70646  0.70646  Biso   1.000  Zn
  H1       1.0000 0.45570  0.45570  0.93630  Biso   1.000  H
  H2       1.0000 0.45570  0.45570  0.15230  Biso   1.000  H
  H3       1.0000 0.93630  0.15230  0.45570  Biso   1.000  H
  H4       1.0000 0.15230  0.93630  0.45570  Biso   1.000  H
  H5       1.0000 0.45570  0.93630  0.15230  Biso   1.000  H
  H6       1.0000 0.45570  0.15230  0.93630  Biso   1.000  H
  H7       1.0000 0.93630  0.45570  0.45570  Biso   1.000  H
  H8       1.0000 0.15230  0.45570  0.45570  Biso   1.000  H
  H9       1.0000 0.45570  0.15230  0.45570  Biso   1.000  H
  H10      1.0000 0.45570  0.93630  0.45570  Biso   1.000  H
  H11      1.0000 0.93630  0.45570  0.15230  Biso   1.000  H
  H12      1.0000 0.15230  0.45570  0.93630  Biso   1.000  H
  H13      1.0000 0.54430  0.54430  0.06370  Biso   1.000  H
  H14      1.0000 0.54430  0.54430  0.84770  Biso   1.000  H
  H15      1.0000 0.84770  0.06370  0.54430  Biso   1.000  H
  H16      1.0000 0.06370  0.84770  0.54430  Biso   1.000  H
  H17      1.0000 0.06370  0.54430  0.84770  Biso   1.000  H
  H18      1.0000 0.84770  0.54430  0.06370  Biso   1.000  H
  H19      1.0000 0.54430  0.06370  0.54430  Biso   1.000  H
  H20      1.0000 0.54430  0.84770  0.54430  Biso   1.000  H
  H21      1.0000 0.84770  0.54430  0.54430  Biso   1.000  H
  H22      1.0000 0.06370  0.54430  0.54430  Biso   1.000  H
  H23      1.0000 0.54430  0.06370  0.84770  Biso   1.000  H
  H24      1.0000 0.54430  0.84770  0.06370  Biso   1.000  H
  C1       1.0000 0.47332  0.47332  0.96310  Biso   1.000  C
  C2       1.0000 0.47332  0.47332  0.09026  Biso   1.000  C
  C3       1.0000 0.96310  0.09026  0.47332  Biso   1.000  C
  C4       1.0000 0.09026  0.96310  0.47332  Biso   1.000  C
  C5       1.0000 0.47332  0.96310  0.09026  Biso   1.000  C
  C6       1.0000 0.47332  0.09026  0.96310  Biso   1.000  C
  C7       1.0000 0.96310  0.47332  0.47332  Biso   1.000  C
  C8       1.0000 0.09026  0.47332  0.47332  Biso   1.000  C
  C9       1.0000 0.47332  0.09026  0.47332  Biso   1.000  C
  C10      1.0000 0.47332  0.96310  0.47332  Biso   1.000  C
  C11      1.0000 0.96310  0.47332  0.09026  Biso   1.000  C
  C12      1.0000 0.09026  0.47332  0.96310  Biso   1.000  C
  C13      1.0000 0.52668  0.52668  0.03690  Biso   1.000  C
  C14      1.0000 0.52668  0.52668  0.90974  Biso   1.000  C
  C15      1.0000 0.90974  0.03690  0.52668  Biso   1.000  C
  C16      1.0000 0.03690  0.90974  0.52668  Biso   1.000  C
  C17      1.0000 0.03690  0.52668  0.90974  Biso   1.000  C
  C18      1.0000 0.90974  0.52668  0.03690  Biso   1.000  C
  C19      1.0000 0.52668  0.03690  0.52668  Biso   1.000  C
  C20      1.0000 0.52668  0.90974  0.52668  Biso   1.000  C
  C21      1.0000 0.90974  0.52668  0.52668  Biso   1.000  C
  C22      1.0000 0.03690  0.52668  0.52668  Biso   1.000  C
  C23      1.0000 0.52668  0.03690  0.90974  Biso   1.000  C
  C24      1.0000 0.52668  0.90974  0.03690  Biso   1.000  C
  C25      1.0000 0.38870  0.38870  0.11130  Biso   1.000  C
  C26      1.0000 0.44580  0.44580  0.05420  Biso   1.000  C
  C27      1.0000 0.11130  0.11130  0.38870  Biso   1.000  C
  C28      1.0000 0.05420  0.05420  0.44580  Biso   1.000  C
  C29      1.0000 0.38870  0.11130  0.11130  Biso   1.000  C
  C30      1.0000 0.44580  0.05420  0.05420  Biso   1.000  C
  C31      1.0000 0.11130  0.38870  0.38870  Biso   1.000  C
  C32      1.0000 0.05420  0.44580  0.44580  Biso   1.000  C
  C33      1.0000 0.38870  0.11130  0.38870  Biso   1.000  C
  C34      1.0000 0.44580  0.05420  0.44580  Biso   1.000  C
  C35      1.0000 0.11130  0.38870  0.11130  Biso   1.000  C
  C36      1.0000 0.05420  0.44580  0.05420  Biso   1.000  C
  C37      1.0000 0.61130  0.61130  0.88870  Biso   1.000  C
  C38      1.0000 0.55420  0.55420  0.94580  Biso   1.000  C
  C39      1.0000 0.88870  0.88870  0.61130  Biso   1.000  C
  C40      1.0000 0.94580  0.94580  0.55420  Biso   1.000  C
  C41      1.0000 0.88870  0.61130  0.88870  Biso   1.000  C
  C42      1.0000 0.94580  0.55420  0.94580  Biso   1.000  C
  C43      1.0000 0.61130  0.88870  0.61130  Biso   1.000  C
  C44      1.0000 0.55420  0.94580  0.55420  Biso   1.000  C
  C45      1.0000 0.88870  0.61130  0.61130  Biso   1.000  C
  C46      1.0000 0.94580  0.55420  0.55420  Biso   1.000  C
  C47      1.0000 0.61130  0.88870  0.88870  Biso   1.000  C
  C48      1.0000 0.55420  0.94580  0.94580  Biso   1.000  C
  O1       1.0000 0.25000  0.25000  0.25000  Biso   1.000  O
  O2       1.0000 0.75000  0.75000  0.75000  Biso   1.000  O
  O3       1.0000 0.36613  0.36613  0.07303  Biso   1.000  O
  O4       1.0000 0.36613  0.36613  0.19471  Biso   1.000  O
  O5       1.0000 0.07303  0.19471  0.36613  Biso   1.000  O
  O6       1.0000 0.19471  0.07303  0.36613  Biso   1.000  O
  O7       1.0000 0.36613  0.07303  0.19471  Biso   1.000  O
  O8       1.0000 0.36613  0.19471  0.07303  Biso   1.000  O
  O9       1.0000 0.07303  0.36613  0.36613  Biso   1.000  O
  O10      1.0000 0.19471  0.36613  0.36613  Biso   1.000  O
  O11      1.0000 0.36613  0.19471  0.36613  Biso   1.000  O
  O12      1.0000 0.36613  0.07303  0.36613  Biso   1.000  O
  O13      1.0000 0.07303  0.36613  0.19471  Biso   1.000  O
  O14      1.0000 0.19471  0.36613  0.07303  Biso   1.000  O
  O15      1.0000 0.63387  0.63387  0.92697  Biso   1.000  O
  O16      1.0000 0.63387  0.63387  0.80529  Biso   1.000  O
  O17      1.0000 0.80529  0.92697  0.63387  Biso   1.000  O
  O18      1.0000 0.92697  0.80529  0.63387  Biso   1.000  O
  O19      1.0000 0.92697  0.63387  0.80529  Biso   1.000  O
  O20      1.0000 0.80529  0.63387  0.92697  Biso   1.000  O
  O21      1.0000 0.63387  0.92697  0.63387  Biso   1.000  O
  O22      1.0000 0.63387  0.80529  0.63387  Biso   1.000  O
  O23      1.0000 0.80529  0.63387  0.63387  Biso   1.000  O
  O24      1.0000 0.92697  0.63387  0.63387  Biso   1.000  O
  O25      1.0000 0.63387  0.92697  0.80529  Biso   1.000  O
  O26      1.0000 0.63387  0.80529  0.92697  Biso   1.000  O
  Zn9      1.0000 0.00000  0.00000  0.00000  Biso   1.000  Zn
  Zn10     1.0000 0.57399  0.41748  0.59106  Biso   1.000  Zn
  Zn11     1.0000 0.57399  0.59120  0.59106  Biso   1.000  Zn
  Zn12     1.0000 0.00000  0.17372  0.00000  Biso   1.000  Zn
  Zn13     1.0000 0.99996  0.99992  0.17392  Biso   1.000  Zn
  Zn14     1.0000 0.17349  0.00018  0.99987  Biso   1.000  Zn
  Zn15     1.0000 0.57403  0.59128  0.41714  Biso   1.000  Zn
  Zn16     1.0000 0.40049  0.59102  0.59119  Biso   1.000  Zn
  H25      1.0000 0.82703  0.84322  0.36556  Biso   1.000  H
  H26      1.0000 0.82608  0.84476  0.13645  Biso   1.000  H
  H27      1.0000 0.82319  0.13650  0.84561  Biso   1.000  H
  H28      1.0000 0.74696  0.45329  0.22549  Biso   1.000  H
  H29      1.0000 0.74791  0.22477  0.45461  Biso   1.000  H
  H30      1.0000 0.75080  0.22277  0.74545  Biso   1.000  H
  H31      1.0000 0.74696  0.74798  0.22549  Biso   1.000  H
  H32      1.0000 0.74791  0.74644  0.45461  Biso   1.000  H
  H33      1.0000 0.75080  0.45470  0.74545  Biso   1.000  H
  H34      1.0000 0.82703  0.13791  0.36556  Biso   1.000  H
  H35      1.0000 0.82608  0.36643  0.13645  Biso   1.000  H
  H36      1.0000 0.82319  0.36843  0.84561  Biso   1.000  H
  C49      1.0000 0.91275  0.91179  0.17839  Biso   1.000  C
  C50      1.0000 0.84870  0.84724  0.23769  Biso   1.000  C
  C51      1.0000 0.81136  0.82180  0.33919  Biso   1.000  C
  C52      1.0000 0.81141  0.82324  0.19971  Biso   1.000  C
  C53      1.0000 0.17441  0.91240  0.91254  Biso   1.000  C
  C54      1.0000 0.80980  0.19966  0.82191  Biso   1.000  C
  C55      1.0000 0.66123  0.42041  0.41266  Biso   1.000  C
  C56      1.0000 0.72529  0.35110  0.35337  Biso   1.000  C
  C57      1.0000 0.76263  0.38983  0.25187  Biso   1.000  C
  C58      1.0000 0.76258  0.25184  0.39134  Biso   1.000  C
  C59      1.0000 0.39957  0.41683  0.67852  Biso   1.000  C
  C60      1.0000 0.76419  0.24885  0.76915  Biso   1.000  C
  C61      1.0000 0.66123  0.67941  0.41266  Biso   1.000  C
  C62      1.0000 0.72529  0.74396  0.35337  Biso   1.000  C
  C63      1.0000 0.76263  0.76940  0.25187  Biso   1.000  C
  C64      1.0000 0.76258  0.76796  0.39134  Biso   1.000  C
  C65      1.0000 0.39957  0.67880  0.67852  Biso   1.000  C
  C66      1.0000 0.76419  0.39154  0.76915  Biso   1.000  C
  C67      1.0000 0.91275  0.17079  0.17839  Biso   1.000  C
  C68      1.0000 0.84870  0.24009  0.23769  Biso   1.000  C
  C69      1.0000 0.81136  0.20137  0.33919  Biso   1.000  C
  C70      1.0000 0.81141  0.33936  0.19971  Biso   1.000  C
  C71      1.0000 0.17441  0.17437  0.91254  Biso   1.000  C
  C72      1.0000 0.80980  0.34235  0.82191  Biso   1.000  C
  C73      1.0000 0.17244  0.91149  0.17829  Biso   1.000  C
  C74      1.0000 0.90937  0.17546  0.91343  Biso   1.000  C
  C75      1.0000 0.84848  0.24031  0.84461  Biso   1.000  C
  C76      1.0000 0.40154  0.67971  0.41276  Biso   1.000  C
  C77      1.0000 0.66462  0.41574  0.67763  Biso   1.000  C
  C78      1.0000 0.72551  0.35089  0.74644  Biso   1.000  C
  O27      1.0000 0.93021  0.92805  0.22222  Biso   1.000  O
  O28      1.0000 0.92822  0.92726  0.09569  Biso   1.000  O
  O29      1.0000 0.22359  0.92787  0.92880  Biso   1.000  O
  O30      1.0000 0.09340  0.92767  0.92870  Biso   1.000  O
  O31      1.0000 0.92900  0.09395  0.92712  Biso   1.000  O
  O32      1.0000 0.64378  0.49795  0.36884  Biso   1.000  O
  O33      1.0000 0.64577  0.36865  0.49537  Biso   1.000  O
  O34      1.0000 0.35039  0.49774  0.66225  Biso   1.000  O
  O35      1.0000 0.48058  0.36725  0.66235  Biso   1.000  O
  O36      1.0000 0.64499  0.36755  0.66394  Biso   1.000  O
  O37      1.0000 0.64378  0.66315  0.36884  Biso   1.000  O
  O38      1.0000 0.64577  0.66394  0.49537  Biso   1.000  O
  O39      1.0000 0.35039  0.66333  0.66225  Biso   1.000  O
  O40      1.0000 0.48058  0.66353  0.66235  Biso   1.000  O
  O41      1.0000 0.64499  0.49724  0.66394  Biso   1.000  O
  O42      1.0000 0.93021  0.09324  0.22222  Biso   1.000  O
  O43      1.0000 0.92822  0.22255  0.09569  Biso   1.000  O
  O44      1.0000 0.22359  0.09346  0.92880  Biso   1.000  O
  O45      1.0000 0.09340  0.22395  0.92870  Biso   1.000  O
  O46      1.0000 0.92900  0.22365  0.92712  Biso   1.000  O
  O47      1.0000 0.04195  0.04477  0.04224  Biso   1.000  O
  O48      1.0000 0.09371  0.92815  0.22371  Biso   1.000  O
  O49      1.0000 0.22331  0.92826  0.09391  Biso   1.000  O
  O50      1.0000 0.53204  0.54643  0.54881  Biso   1.000  O
  O51      1.0000 0.48027  0.66305  0.36735  Biso   1.000  O
