data_image0
_cell_length_a       18.2115
_cell_length_b       18.2115
_cell_length_c       18.2115
_cell_angle_alpha    60
_cell_angle_beta     60
_cell_angle_gamma    60

_symmetry_space_group_name_H-M    "P 1"
_symmetry_int_tables_number       1

loop_
  _symmetry_equiv_pos_as_xyz
  'x, y, z'

loop_
  _atom_site_label
  _atom_site_occupancy
  _atom_site_fract_x
  _atom_site_fract_y
  _atom_site_fract_z
  _atom_site_thermal_displace_type
  _atom_site_B_iso_or_equiv
  _atom_site_type_symbol
  C1       1.0000 0.29361  0.29361  0.11917  Biso   1.000  C
  C2       1.0000 0.29361  0.29361  0.29361  Biso   1.000  C
  C3       1.0000 0.11917  0.29361  0.29361  Biso   1.000  C
  C4       1.0000 0.29361  0.11917  0.29361  Biso   1.000  C
  C5       1.0000 0.70639  0.70639  0.88083  Biso   1.000  C
  C6       1.0000 0.70639  0.70639  0.70639  Biso   1.000  C
  C7       1.0000 0.70639  0.88083  0.70639  Biso   1.000  C
  C8       1.0000 0.88083  0.70639  0.70639  Biso   1.000  C
  C9       1.0000 0.45530  0.45530  0.93770  Biso   1.000  C
  C10      1.0000 0.45530  0.45530  0.15170  Biso   1.000  C
  C11      1.0000 0.93770  0.15170  0.45530  Biso   1.000  C
  C12      1.0000 0.15170  0.93770  0.45530  Biso   1.000  C
  C13      1.0000 0.45530  0.93770  0.15170  Biso   1.000  C
  C14      1.0000 0.45530  0.15170  0.93770  Biso   1.000  C
  C15      1.0000 0.93770  0.45530  0.45530  Biso   1.000  C
  C16      1.0000 0.15170  0.45530  0.45530  Biso   1.000  C
  C17      1.0000 0.45530  0.15170  0.45530  Biso   1.000  C
  C18      1.0000 0.45530  0.93770  0.45530  Biso   1.000  C
  C19      1.0000 0.93770  0.45530  0.15170  Biso   1.000  C
  C20      1.0000 0.15170  0.45530  0.93770  Biso   1.000  C
  C21      1.0000 0.54470  0.54470  0.06230  Biso   1.000  C
  C22      1.0000 0.54470  0.54470  0.84830  Biso   1.000  C
  C23      1.0000 0.84830  0.06230  0.54470  Biso   1.000  C
  C24      1.0000 0.06230  0.84830  0.54470  Biso   1.000  C
  C25      1.0000 0.06230  0.54470  0.84830  Biso   1.000  C
  C26      1.0000 0.84830  0.54470  0.06230  Biso   1.000  C
  C27      1.0000 0.54470  0.06230  0.54470  Biso   1.000  C
  C28      1.0000 0.54470  0.84830  0.54470  Biso   1.000  C
  C29      1.0000 0.84830  0.54470  0.54470  Biso   1.000  C
  C30      1.0000 0.06230  0.54470  0.54470  Biso   1.000  C
  C31      1.0000 0.54470  0.06230  0.84830  Biso   1.000  C
  C32      1.0000 0.54470  0.84830  0.06230  Biso   1.000  C
  C33      1.0000 0.47300  0.47300  0.96450  Biso   1.000  C
  C34      1.0000 0.47300  0.47300  0.08950  Biso   1.000  C
  C35      1.0000 0.96450  0.08950  0.47300  Biso   1.000  C
  C36      1.0000 0.08950  0.96450  0.47300  Biso   1.000  C
  C37      1.0000 0.47300  0.96450  0.08950  Biso   1.000  C
  C38      1.0000 0.47300  0.08950  0.96450  Biso   1.000  C
  C39      1.0000 0.96450  0.47300  0.47300  Biso   1.000  C
  C40      1.0000 0.08950  0.47300  0.47300  Biso   1.000  C
  C41      1.0000 0.47300  0.08950  0.47300  Biso   1.000  C
  C42      1.0000 0.47300  0.96450  0.47300  Biso   1.000  C
  C43      1.0000 0.96450  0.47300  0.08950  Biso   1.000  C
  C44      1.0000 0.08950  0.47300  0.96450  Biso   1.000  C
  C45      1.0000 0.52700  0.52700  0.03550  Biso   1.000  C
  C46      1.0000 0.52700  0.52700  0.91050  Biso   1.000  C
  C47      1.0000 0.91050  0.03550  0.52700  Biso   1.000  C
  C48      1.0000 0.03550  0.91050  0.52700  Biso   1.000  C
  C49      1.0000 0.03550  0.52700  0.91050  Biso   1.000  C
  C50      1.0000 0.91050  0.52700  0.03550  Biso   1.000  C
  C51      1.0000 0.52700  0.03550  0.52700  Biso   1.000  C
  C52      1.0000 0.52700  0.91050  0.52700  Biso   1.000  C
  C53      1.0000 0.91050  0.52700  0.52700  Biso   1.000  C
  C54      1.0000 0.03550  0.52700  0.52700  Biso   1.000  C
  C55      1.0000 0.52700  0.03550  0.91050  Biso   1.000  C
  C56      1.0000 0.52700  0.91050  0.03550  Biso   1.000  C
  C57      1.0000 0.38860  0.38860  0.11140  Biso   1.000  C
  C58      1.0000 0.44600  0.44600  0.05400  Biso   1.000  C
  C59      1.0000 0.11140  0.11140  0.38860  Biso   1.000  C
  C60      1.0000 0.05400  0.05400  0.44600  Biso   1.000  C
  C61      1.0000 0.38860  0.11140  0.11140  Biso   1.000  C
  C62      1.0000 0.44600  0.05400  0.05400  Biso   1.000  C
  C63      1.0000 0.11140  0.38860  0.38860  Biso   1.000  C
  C64      1.0000 0.05400  0.44600  0.44600  Biso   1.000  C
  C65      1.0000 0.38860  0.11140  0.38860  Biso   1.000  C
  C66      1.0000 0.44600  0.05400  0.44600  Biso   1.000  C
  C67      1.0000 0.11140  0.38860  0.11140  Biso   1.000  C
  C68      1.0000 0.05400  0.44600  0.05400  Biso   1.000  C
  C69      1.0000 0.61140  0.61140  0.88860  Biso   1.000  C
  C70      1.0000 0.55400  0.55400  0.94600  Biso   1.000  C
  C71      1.0000 0.88860  0.88860  0.61140  Biso   1.000  C
  C72      1.0000 0.94600  0.94600  0.55400  Biso   1.000  C
  C73      1.0000 0.88860  0.61140  0.88860  Biso   1.000  C
  C74      1.0000 0.94600  0.55400  0.94600  Biso   1.000  C
  C75      1.0000 0.61140  0.88860  0.61140  Biso   1.000  C
  C76      1.0000 0.55400  0.94600  0.55400  Biso   1.000  C
  C77      1.0000 0.88860  0.61140  0.61140  Biso   1.000  C
  C78      1.0000 0.94600  0.55400  0.55400  Biso   1.000  C
  C79      1.0000 0.61140  0.88860  0.88860  Biso   1.000  C
  C80      1.0000 0.55400  0.94600  0.94600  Biso   1.000  C
  C81      1.0000 0.25000  0.25000  0.25000  Biso   1.000  C
  C82      1.0000 0.75000  0.75000  0.75000  Biso   1.000  C
  C83      1.0000 0.36611  0.36611  0.07317  Biso   1.000  C
  C84      1.0000 0.36611  0.36611  0.19461  Biso   1.000  C
  C85      1.0000 0.07317  0.19461  0.36611  Biso   1.000  C
  C86      1.0000 0.19461  0.07317  0.36611  Biso   1.000  C
  C87      1.0000 0.36611  0.07317  0.19461  Biso   1.000  C
  C88      1.0000 0.36611  0.19461  0.07317  Biso   1.000  C
  C89      1.0000 0.07317  0.36611  0.36611  Biso   1.000  C
  C90      1.0000 0.19461  0.36611  0.36611  Biso   1.000  C
  C91      1.0000 0.36611  0.19461  0.36611  Biso   1.000  C
  C92      1.0000 0.36611  0.07317  0.36611  Biso   1.000  C
  C93      1.0000 0.07317  0.36611  0.19461  Biso   1.000  C
  C94      1.0000 0.19461  0.36611  0.07317  Biso   1.000  C
  C95      1.0000 0.63389  0.63389  0.92683  Biso   1.000  C
  C96      1.0000 0.63389  0.63389  0.80539  Biso   1.000  C
  C97      1.0000 0.80539  0.92683  0.63389  Biso   1.000  C
  C98      1.0000 0.92683  0.80539  0.63389  Biso   1.000  C
  C99      1.0000 0.92683  0.63389  0.80539  Biso   1.000  C
  C100     1.0000 0.80539  0.63389  0.92683  Biso   1.000  C
  C101     1.0000 0.63389  0.92683  0.63389  Biso   1.000  C
  C102     1.0000 0.63389  0.80539  0.63389  Biso   1.000  C
  C103     1.0000 0.80539  0.63389  0.63389  Biso   1.000  C
  C104     1.0000 0.92683  0.63389  0.63389  Biso   1.000  C
  C105     1.0000 0.63389  0.92683  0.80539  Biso   1.000  C
  C106     1.0000 0.63389  0.80539  0.92683  Biso   1.000  C
  O1       1.0000 0.47889  0.34647  0.67251  Biso   1.000  O
  O2       1.0000 0.65342  0.34647  0.49799  Biso   1.000  O
  O3       1.0000 0.47889  0.34647  0.49799  Biso   1.000  O
  O4       1.0000 0.47889  0.52100  0.49799  Biso   1.000  O
  O5       1.0000 0.06690  0.93349  0.91048  Biso   1.000  O
  O6       1.0000 0.89237  0.93349  0.08500  Biso   1.000  O
  O7       1.0000 0.06690  0.75896  0.08500  Biso   1.000  O
  O8       1.0000 0.06690  0.93349  0.08500  Biso   1.000  O
  O9       1.0000 0.62167  0.18420  0.85428  Biso   1.000  O
  O10      1.0000 0.83568  0.18420  0.64027  Biso   1.000  O
  O11      1.0000 0.31712  0.48875  0.33572  Biso   1.000  O
  O12      1.0000 0.31712  0.70277  0.33572  Biso   1.000  O
  O13      1.0000 0.31712  0.70277  0.64027  Biso   1.000  O
  O14      1.0000 0.31712  0.48875  0.85428  Biso   1.000  O
  O15      1.0000 0.62167  0.18420  0.33572  Biso   1.000  O
  O16      1.0000 0.83568  0.18420  0.33572  Biso   1.000  O
  O17      1.0000 0.83568  0.48875  0.33572  Biso   1.000  O
  O18      1.0000 0.62167  0.70277  0.33572  Biso   1.000  O
  O19      1.0000 0.31712  0.18420  0.64027  Biso   1.000  O
  O20      1.0000 0.31712  0.18420  0.85428  Biso   1.000  O
  O21      1.0000 0.92412  0.09576  0.72871  Biso   1.000  O
  O22      1.0000 0.71011  0.09576  0.94272  Biso   1.000  O
  O23      1.0000 0.22867  0.57720  0.24727  Biso   1.000  O
  O24      1.0000 0.22867  0.79121  0.24727  Biso   1.000  O
  O25      1.0000 0.22867  0.09576  0.94272  Biso   1.000  O
  O26      1.0000 0.22867  0.09576  0.72871  Biso   1.000  O
  O27      1.0000 0.92412  0.57720  0.24727  Biso   1.000  O
  O28      1.0000 0.71011  0.79121  0.24727  Biso   1.000  O
  O29      1.0000 0.71011  0.09576  0.24727  Biso   1.000  O
  O30      1.0000 0.92412  0.09576  0.24727  Biso   1.000  O
  O31      1.0000 0.22867  0.57720  0.94272  Biso   1.000  O
  O32      1.0000 0.22867  0.79121  0.72871  Biso   1.000  O
  O33      1.0000 0.68400  0.16650  0.82736  Biso   1.000  O
  O34      1.0000 0.80877  0.16650  0.70260  Biso   1.000  O
  O35      1.0000 0.29941  0.55109  0.31801  Biso   1.000  O
  O36      1.0000 0.29941  0.67585  0.31801  Biso   1.000  O
  O37      1.0000 0.29941  0.67585  0.70260  Biso   1.000  O
  O38      1.0000 0.29941  0.55109  0.82736  Biso   1.000  O
  O39      1.0000 0.68400  0.16650  0.31801  Biso   1.000  O
  O40      1.0000 0.80877  0.16650  0.31801  Biso   1.000  O
  O41      1.0000 0.80877  0.55109  0.31801  Biso   1.000  O
  O42      1.0000 0.68400  0.67585  0.31801  Biso   1.000  O
  O43      1.0000 0.29941  0.16650  0.70260  Biso   1.000  O
  O44      1.0000 0.29941  0.16650  0.82736  Biso   1.000  O
  O45      1.0000 0.86179  0.11347  0.75562  Biso   1.000  O
  O46      1.0000 0.73702  0.11347  0.88039  Biso   1.000  O
  O47      1.0000 0.24638  0.60411  0.26498  Biso   1.000  O
  O48      1.0000 0.24638  0.72888  0.26498  Biso   1.000  O
  O49      1.0000 0.24638  0.11347  0.88039  Biso   1.000  O
  O50      1.0000 0.24638  0.11347  0.75562  Biso   1.000  O
  O51      1.0000 0.86179  0.60411  0.26498  Biso   1.000  O
  O52      1.0000 0.73702  0.72888  0.26498  Biso   1.000  O
  O53      1.0000 0.73702  0.11347  0.26498  Biso   1.000  O
  O54      1.0000 0.86179  0.11347  0.26498  Biso   1.000  O
  O55      1.0000 0.24638  0.60411  0.88039  Biso   1.000  O
  O56      1.0000 0.24638  0.72888  0.75562  Biso   1.000  O
  O57      1.0000 0.66109  0.25154  0.68019  Biso   1.000  O
  O58      1.0000 0.71922  0.19341  0.73831  Biso   1.000  O
  O59      1.0000 0.38396  0.52867  0.40305  Biso   1.000  O
  O60      1.0000 0.32583  0.58680  0.34492  Biso   1.000  O
  O61      1.0000 0.38396  0.52867  0.68019  Biso   1.000  O
  O62      1.0000 0.32583  0.58680  0.73831  Biso   1.000  O
  O63      1.0000 0.66109  0.25154  0.40305  Biso   1.000  O
  O64      1.0000 0.71922  0.19341  0.34492  Biso   1.000  O
  O65      1.0000 0.66109  0.52867  0.40305  Biso   1.000  O
  O66      1.0000 0.71922  0.58680  0.34492  Biso   1.000  O
  O67      1.0000 0.38396  0.25154  0.68019  Biso   1.000  O
  O68      1.0000 0.32583  0.19341  0.73831  Biso   1.000  O
  O69      1.0000 0.88470  0.02843  0.90280  Biso   1.000  O
  O70      1.0000 0.82657  0.08656  0.84467  Biso   1.000  O
  O71      1.0000 0.16183  0.75129  0.17994  Biso   1.000  O
  O72      1.0000 0.21996  0.69316  0.23807  Biso   1.000  O
  O73      1.0000 0.16183  0.02843  0.90280  Biso   1.000  O
  O74      1.0000 0.21996  0.08656  0.84467  Biso   1.000  O
  O75      1.0000 0.88470  0.75129  0.17994  Biso   1.000  O
  O76      1.0000 0.82657  0.69316  0.23807  Biso   1.000  O
  O77      1.0000 0.88470  0.02843  0.17994  Biso   1.000  O
  O78      1.0000 0.82657  0.08656  0.23807  Biso   1.000  O
  O79      1.0000 0.16183  0.75129  0.90280  Biso   1.000  O
  O80      1.0000 0.21996  0.69316  0.84467  Biso   1.000  O
  O81      1.0000 0.52252  0.39011  0.54162  Biso   1.000  O
  O82      1.0000 0.02327  0.88986  0.04137  Biso   1.000  O
  O83      1.0000 0.57824  0.27396  0.71819  Biso   1.000  O
  O84      1.0000 0.69910  0.27396  0.59733  Biso   1.000  O
  O85      1.0000 0.40638  0.44582  0.42547  Biso   1.000  O
  O86      1.0000 0.40638  0.56668  0.42547  Biso   1.000  O
  O87      1.0000 0.40638  0.56668  0.59733  Biso   1.000  O
  O88      1.0000 0.40638  0.44582  0.71819  Biso   1.000  O
  O89      1.0000 0.57824  0.27396  0.42547  Biso   1.000  O
  O90      1.0000 0.69910  0.27396  0.42547  Biso   1.000  O
  O91      1.0000 0.69910  0.44582  0.42547  Biso   1.000  O
  O92      1.0000 0.57824  0.56668  0.42547  Biso   1.000  O
  O93      1.0000 0.40638  0.27396  0.59733  Biso   1.000  O
  O94      1.0000 0.40638  0.27396  0.71819  Biso   1.000  O
  O95      1.0000 0.96755  0.00601  0.86479  Biso   1.000  O
  O96      1.0000 0.84669  0.00601  0.98565  Biso   1.000  O
  O97      1.0000 0.13941  0.71328  0.15752  Biso   1.000  O
  O98      1.0000 0.13941  0.83414  0.15752  Biso   1.000  O
  O99      1.0000 0.13941  0.00601  0.98565  Biso   1.000  O
  O100     1.0000 0.13941  0.00601  0.86479  Biso   1.000  O
  O101     1.0000 0.96755  0.71328  0.15752  Biso   1.000  O
  O102     1.0000 0.84669  0.83414  0.15752  Biso   1.000  O
  O103     1.0000 0.84669  0.00601  0.15752  Biso   1.000  O
  O104     1.0000 0.96755  0.00601  0.15752  Biso   1.000  O
  O105     1.0000 0.13941  0.71328  0.98565  Biso   1.000  O
