data_image0
_cell_length_a       18.2789
_cell_length_b       18.2789
_cell_length_c       18.2789
_cell_angle_alpha    60
_cell_angle_beta     60
_cell_angle_gamma    60

_symmetry_space_group_name_H-M    "P 1"
_symmetry_int_tables_number       1

loop_
  _symmetry_equiv_pos_as_xyz
  'x, y, z'

loop_
  _atom_site_label
  _atom_site_occupancy
  _atom_site_fract_x
  _atom_site_fract_y
  _atom_site_fract_z
  _atom_site_thermal_displace_type
  _atom_site_B_iso_or_equiv
  _atom_site_type_symbol
  C1       1.0000 0.29348  0.29347  0.11958  Biso   1.000  C
  C2       1.0000 0.29348  0.29347  0.29347  Biso   1.000  C
  C3       1.0000 0.11959  0.29347  0.29347  Biso   1.000  C
  C4       1.0000 0.29348  0.11958  0.29347  Biso   1.000  C
  C5       1.0000 0.70652  0.70653  0.88042  Biso   1.000  C
  C6       1.0000 0.70652  0.70653  0.70653  Biso   1.000  C
  C7       1.0000 0.70652  0.88042  0.70653  Biso   1.000  C
  C8       1.0000 0.88041  0.70653  0.70653  Biso   1.000  C
  C9       1.0000 0.45520  0.45520  0.93520  Biso   1.000  C
  C10      1.0000 0.45520  0.45520  0.15440  Biso   1.000  C
  C11      1.0000 0.93520  0.15440  0.45520  Biso   1.000  C
  C12      1.0000 0.15440  0.93520  0.45520  Biso   1.000  C
  C13      1.0000 0.45520  0.93520  0.15440  Biso   1.000  C
  C14      1.0000 0.45520  0.15440  0.93520  Biso   1.000  C
  C15      1.0000 0.93520  0.45520  0.45520  Biso   1.000  C
  C16      1.0000 0.15440  0.45520  0.45520  Biso   1.000  C
  C17      1.0000 0.45520  0.15440  0.45520  Biso   1.000  C
  C18      1.0000 0.45520  0.93520  0.45520  Biso   1.000  C
  C19      1.0000 0.93520  0.45520  0.15440  Biso   1.000  C
  C20      1.0000 0.15440  0.45520  0.93520  Biso   1.000  C
  C21      1.0000 0.54480  0.54480  0.06480  Biso   1.000  C
  C22      1.0000 0.54480  0.54480  0.84560  Biso   1.000  C
  C23      1.0000 0.84560  0.06480  0.54480  Biso   1.000  C
  C24      1.0000 0.06480  0.84560  0.54480  Biso   1.000  C
  C25      1.0000 0.06480  0.54480  0.84560  Biso   1.000  C
  C26      1.0000 0.84560  0.54480  0.06480  Biso   1.000  C
  C27      1.0000 0.54480  0.06480  0.54480  Biso   1.000  C
  C28      1.0000 0.54480  0.84560  0.54480  Biso   1.000  C
  C29      1.0000 0.84560  0.54480  0.54480  Biso   1.000  C
  C30      1.0000 0.06480  0.54480  0.54480  Biso   1.000  C
  C31      1.0000 0.54480  0.06480  0.84560  Biso   1.000  C
  C32      1.0000 0.54480  0.84560  0.06480  Biso   1.000  C
  C33      1.0000 0.47338  0.47338  0.96214  Biso   1.000  C
  C34      1.0000 0.47338  0.47338  0.09110  Biso   1.000  C
  C35      1.0000 0.96214  0.09110  0.47338  Biso   1.000  C
  C36      1.0000 0.09110  0.96214  0.47338  Biso   1.000  C
  C37      1.0000 0.47338  0.96214  0.09110  Biso   1.000  C
  C38      1.0000 0.47338  0.09110  0.96214  Biso   1.000  C
  C39      1.0000 0.96214  0.47338  0.47338  Biso   1.000  C
  C40      1.0000 0.09110  0.47338  0.47338  Biso   1.000  C
  C41      1.0000 0.47338  0.09110  0.47338  Biso   1.000  C
  C42      1.0000 0.47338  0.96214  0.47338  Biso   1.000  C
  C43      1.0000 0.96214  0.47338  0.09110  Biso   1.000  C
  C44      1.0000 0.09110  0.47338  0.96214  Biso   1.000  C
  C45      1.0000 0.52662  0.52662  0.03786  Biso   1.000  C
  C46      1.0000 0.52662  0.52662  0.90890  Biso   1.000  C
  C47      1.0000 0.90890  0.03786  0.52662  Biso   1.000  C
  C48      1.0000 0.03786  0.90890  0.52662  Biso   1.000  C
  C49      1.0000 0.03786  0.52662  0.90890  Biso   1.000  C
  C50      1.0000 0.90890  0.52662  0.03786  Biso   1.000  C
  C51      1.0000 0.52662  0.03786  0.52662  Biso   1.000  C
  C52      1.0000 0.52662  0.90890  0.52662  Biso   1.000  C
  C53      1.0000 0.90890  0.52662  0.52662  Biso   1.000  C
  C54      1.0000 0.03786  0.52662  0.52662  Biso   1.000  C
  C55      1.0000 0.52662  0.03786  0.90890  Biso   1.000  C
  C56      1.0000 0.52662  0.90890  0.03786  Biso   1.000  C
  C57      1.0000 0.38853  0.38853  0.11147  Biso   1.000  C
  C58      1.0000 0.44615  0.44615  0.05385  Biso   1.000  C
  C59      1.0000 0.11147  0.11147  0.38853  Biso   1.000  C
  C60      1.0000 0.05385  0.05385  0.44615  Biso   1.000  C
  C61      1.0000 0.38853  0.11147  0.11147  Biso   1.000  C
  C62      1.0000 0.44615  0.05385  0.05385  Biso   1.000  C
  C63      1.0000 0.11147  0.38853  0.38853  Biso   1.000  C
  C64      1.0000 0.05385  0.44615  0.44615  Biso   1.000  C
  C65      1.0000 0.38853  0.11147  0.38853  Biso   1.000  C
  C66      1.0000 0.44615  0.05385  0.44615  Biso   1.000  C
  C67      1.0000 0.11147  0.38853  0.11147  Biso   1.000  C
  C68      1.0000 0.05385  0.44615  0.05385  Biso   1.000  C
  C69      1.0000 0.61147  0.61147  0.88853  Biso   1.000  C
  C70      1.0000 0.55385  0.55385  0.94615  Biso   1.000  C
  C71      1.0000 0.88853  0.88853  0.61147  Biso   1.000  C
  C72      1.0000 0.94615  0.94615  0.55385  Biso   1.000  C
  C73      1.0000 0.88853  0.61147  0.88853  Biso   1.000  C
  C74      1.0000 0.94615  0.55385  0.94615  Biso   1.000  C
  C75      1.0000 0.61147  0.88853  0.61147  Biso   1.000  C
  C76      1.0000 0.55385  0.94615  0.55385  Biso   1.000  C
  C77      1.0000 0.88853  0.61147  0.61147  Biso   1.000  C
  C78      1.0000 0.94615  0.55385  0.55385  Biso   1.000  C
  C79      1.0000 0.61147  0.88853  0.88853  Biso   1.000  C
  C80      1.0000 0.55385  0.94615  0.94615  Biso   1.000  C
  C81      1.0000 0.25000  0.25000  0.25000  Biso   1.000  C
  C82      1.0000 0.75000  0.75000  0.75000  Biso   1.000  C
  C83      1.0000 0.36624  0.36624  0.07286  Biso   1.000  C
  C84      1.0000 0.36624  0.36624  0.19466  Biso   1.000  C
  C85      1.0000 0.07286  0.19466  0.36624  Biso   1.000  C
  C86      1.0000 0.19466  0.07286  0.36624  Biso   1.000  C
  C87      1.0000 0.36624  0.07286  0.19466  Biso   1.000  C
  C88      1.0000 0.36624  0.19466  0.07286  Biso   1.000  C
  C89      1.0000 0.07286  0.36624  0.36624  Biso   1.000  C
  C90      1.0000 0.19466  0.36624  0.36624  Biso   1.000  C
  C91      1.0000 0.36624  0.19466  0.36624  Biso   1.000  C
  C92      1.0000 0.36624  0.07286  0.36624  Biso   1.000  C
  C93      1.0000 0.07286  0.36624  0.19466  Biso   1.000  C
  C94      1.0000 0.19466  0.36624  0.07286  Biso   1.000  C
  C95      1.0000 0.63376  0.63376  0.92714  Biso   1.000  C
  C96      1.0000 0.63376  0.63376  0.80534  Biso   1.000  C
  C97      1.0000 0.80534  0.92714  0.63376  Biso   1.000  C
  C98      1.0000 0.92714  0.80534  0.63376  Biso   1.000  C
  C99      1.0000 0.92714  0.63376  0.80534  Biso   1.000  C
  C100     1.0000 0.80534  0.63376  0.92714  Biso   1.000  C
  C101     1.0000 0.63376  0.92714  0.63376  Biso   1.000  C
  C102     1.0000 0.63376  0.80534  0.63376  Biso   1.000  C
  C103     1.0000 0.80534  0.63376  0.63376  Biso   1.000  C
  C104     1.0000 0.92714  0.63376  0.63376  Biso   1.000  C
  C105     1.0000 0.63376  0.92714  0.80534  Biso   1.000  C
  C106     1.0000 0.63376  0.80534  0.92714  Biso   1.000  C
  O1       1.0000 0.00550  0.83973  0.13401  Biso   1.000  O
  O2       1.0000 0.00550  0.01297  0.13401  Biso   1.000  O
  O3       1.0000 0.83226  0.01297  0.13401  Biso   1.000  O
  O4       1.0000 0.00550  0.01297  0.96077  Biso   1.000  O
  O5       1.0000 0.41922  0.42624  0.54727  Biso   1.000  O
  O6       1.0000 0.41922  0.59947  0.54727  Biso   1.000  O
  O7       1.0000 0.59246  0.42624  0.54727  Biso   1.000  O
  O8       1.0000 0.41922  0.42624  0.72051  Biso   1.000  O
  O9       1.0000 0.87477  0.65579  0.29134  Biso   1.000  O
  O10      1.0000 0.16284  0.17030  0.00328  Biso   1.000  O
  O11      1.0000 0.64832  0.88224  0.29134  Biso   1.000  O
  O12      1.0000 0.16284  0.17030  0.77683  Biso   1.000  O
  O13      1.0000 0.64832  0.17030  0.00328  Biso   1.000  O
  O14      1.0000 0.16284  0.88224  0.29134  Biso   1.000  O
  O15      1.0000 0.87477  0.17030  0.77683  Biso   1.000  O
  O16      1.0000 0.16284  0.65579  0.29134  Biso   1.000  O
  O17      1.0000 0.16284  0.88224  0.77683  Biso   1.000  O
  O18      1.0000 0.87477  0.17030  0.29134  Biso   1.000  O
  O19      1.0000 0.16284  0.65579  0.00328  Biso   1.000  O
  O20      1.0000 0.64832  0.17030  0.29134  Biso   1.000  O
  O21      1.0000 0.54995  0.26890  0.38994  Biso   1.000  O
  O22      1.0000 0.26189  0.78342  0.67800  Biso   1.000  O
  O23      1.0000 0.77640  0.26890  0.38994  Biso   1.000  O
  O24      1.0000 0.26189  0.55696  0.90445  Biso   1.000  O
  O25      1.0000 0.77640  0.26890  0.67800  Biso   1.000  O
  O26      1.0000 0.26189  0.78342  0.38994  Biso   1.000  O
  O27      1.0000 0.54995  0.26890  0.90445  Biso   1.000  O
  O28      1.0000 0.26189  0.55696  0.38994  Biso   1.000  O
  O29      1.0000 0.26189  0.26890  0.90445  Biso   1.000  O
  O30      1.0000 0.54995  0.78342  0.38994  Biso   1.000  O
  O31      1.0000 0.26189  0.26890  0.67800  Biso   1.000  O
  O32      1.0000 0.77640  0.55696  0.38994  Biso   1.000  O
  O33      1.0000 0.80436  0.68139  0.31375  Biso   1.000  O
  O34      1.0000 0.18524  0.19271  0.93286  Biso   1.000  O
  O35      1.0000 0.67393  0.81182  0.31375  Biso   1.000  O
  O36      1.0000 0.18524  0.19271  0.80243  Biso   1.000  O
  O37      1.0000 0.67393  0.19271  0.93286  Biso   1.000  O
  O38      1.0000 0.18524  0.81182  0.31375  Biso   1.000  O
  O39      1.0000 0.80436  0.19271  0.80243  Biso   1.000  O
  O40      1.0000 0.18524  0.68139  0.31375  Biso   1.000  O
  O41      1.0000 0.18524  0.81182  0.80243  Biso   1.000  O
  O42      1.0000 0.80436  0.19271  0.31375  Biso   1.000  O
  O43      1.0000 0.18524  0.68139  0.93286  Biso   1.000  O
  O44      1.0000 0.67393  0.19271  0.31375  Biso   1.000  O
  O45      1.0000 0.62037  0.24650  0.36753  Biso   1.000  O
  O46      1.0000 0.23948  0.75781  0.74842  Biso   1.000  O
  O47      1.0000 0.75080  0.24650  0.36753  Biso   1.000  O
  O48      1.0000 0.23948  0.62738  0.87885  Biso   1.000  O
  O49      1.0000 0.75079  0.24650  0.74842  Biso   1.000  O
  O50      1.0000 0.23948  0.75781  0.36753  Biso   1.000  O
  O51      1.0000 0.62037  0.24650  0.87885  Biso   1.000  O
  O52      1.0000 0.23948  0.62738  0.36753  Biso   1.000  O
  O53      1.0000 0.23948  0.24650  0.87885  Biso   1.000  O
  O54      1.0000 0.62037  0.75781  0.36753  Biso   1.000  O
  O55      1.0000 0.23948  0.24650  0.74842  Biso   1.000  O
  O56      1.0000 0.75079  0.62738  0.36753  Biso   1.000  O
  O57      1.0000 0.82286  0.83033  0.23003  Biso   1.000  O
  O58      1.0000 0.76635  0.77381  0.28654  Biso   1.000  O
  O59      1.0000 0.10153  0.10899  0.95137  Biso   1.000  O
  O60      1.0000 0.15804  0.16550  0.89485  Biso   1.000  O
  O61      1.0000 0.82286  0.10899  0.95137  Biso   1.000  O
  O62      1.0000 0.76635  0.16550  0.89485  Biso   1.000  O
  O63      1.0000 0.10153  0.83033  0.23003  Biso   1.000  O
  O64      1.0000 0.15804  0.77381  0.28654  Biso   1.000  O
  O65      1.0000 0.10153  0.83033  0.95137  Biso   1.000  O
  O66      1.0000 0.15804  0.77381  0.89485  Biso   1.000  O
  O67      1.0000 0.82286  0.10899  0.23003  Biso   1.000  O
  O68      1.0000 0.76635  0.16550  0.28654  Biso   1.000  O
  O69      1.0000 0.60186  0.33021  0.45125  Biso   1.000  O
  O70      1.0000 0.65837  0.27370  0.39474  Biso   1.000  O
  O71      1.0000 0.32320  0.60888  0.72992  Biso   1.000  O
  O72      1.0000 0.26669  0.66539  0.78643  Biso   1.000  O
  O73      1.0000 0.60186  0.33021  0.72992  Biso   1.000  O
  O74      1.0000 0.65837  0.27370  0.78643  Biso   1.000  O
  O75      1.0000 0.32320  0.60888  0.45125  Biso   1.000  O
  O76      1.0000 0.26669  0.66539  0.39474  Biso   1.000  O
  O77      1.0000 0.32320  0.33021  0.72992  Biso   1.000  O
  O78      1.0000 0.26669  0.27370  0.78643  Biso   1.000  O
  O79      1.0000 0.60186  0.60888  0.45125  Biso   1.000  O
  O80      1.0000 0.65837  0.66539  0.39474  Biso   1.000  O
  O81      1.0000 0.96219  0.96966  0.09070  Biso   1.000  O
  O82      1.0000 0.46253  0.46955  0.59058  Biso   1.000  O
  O83      1.0000 0.90748  0.79292  0.20642  Biso   1.000  O
  O84      1.0000 0.07792  0.08538  0.03598  Biso   1.000  O
  O85      1.0000 0.78545  0.91495  0.20642  Biso   1.000  O
  O86      1.0000 0.07792  0.08538  0.91396  Biso   1.000  O
  O87      1.0000 0.78545  0.08538  0.03598  Biso   1.000  O
  O88      1.0000 0.07792  0.91495  0.20642  Biso   1.000  O
  O89      1.0000 0.90748  0.08538  0.91396  Biso   1.000  O
  O90      1.0000 0.07792  0.79292  0.20642  Biso   1.000  O
  O91      1.0000 0.07792  0.91495  0.91396  Biso   1.000  O
  O92      1.0000 0.90748  0.08538  0.20642  Biso   1.000  O
  O93      1.0000 0.07792  0.79292  0.03598  Biso   1.000  O
  O94      1.0000 0.78545  0.08538  0.20642  Biso   1.000  O
  O95      1.0000 0.51724  0.35382  0.47486  Biso   1.000  O
  O96      1.0000 0.34680  0.64628  0.64530  Biso   1.000  O
  O97      1.0000 0.63927  0.35382  0.47486  Biso   1.000  O
  O98      1.0000 0.34680  0.52426  0.76732  Biso   1.000  O
  O99      1.0000 0.63927  0.35382  0.64530  Biso   1.000  O
  O100     1.0000 0.34680  0.64628  0.47486  Biso   1.000  O
  O101     1.0000 0.51724  0.35382  0.76732  Biso   1.000  O
  O102     1.0000 0.34680  0.52426  0.47486  Biso   1.000  O
  O103     1.0000 0.34680  0.35382  0.76732  Biso   1.000  O
  O104     1.0000 0.51724  0.64628  0.47486  Biso   1.000  O
  O105     1.0000 0.34680  0.35382  0.64530  Biso   1.000  O
