data_image0
_cell_length_a       18.3083
_cell_length_b       18.3083
_cell_length_c       18.3083
_cell_angle_alpha    60
_cell_angle_beta     60
_cell_angle_gamma    60

_symmetry_space_group_name_H-M    "P 1"
_symmetry_int_tables_number       1

loop_
  _symmetry_equiv_pos_as_xyz
  'x, y, z'

loop_
  _atom_site_label
  _atom_site_occupancy
  _atom_site_fract_x
  _atom_site_fract_y
  _atom_site_fract_z
  _atom_site_thermal_displace_type
  _atom_site_B_iso_or_equiv
  _atom_site_type_symbol
  Zn1      1.0000 0.29342  0.29341  0.11976  Biso   1.000  Zn
  Zn2      1.0000 0.29342  0.29341  0.29341  Biso   1.000  Zn
  Zn3      1.0000 0.11977  0.29341  0.29341  Biso   1.000  Zn
  Zn4      1.0000 0.29342  0.11976  0.29341  Biso   1.000  Zn
  Zn5      1.0000 0.70658  0.70659  0.88024  Biso   1.000  Zn
  Zn6      1.0000 0.70658  0.70659  0.70659  Biso   1.000  Zn
  Zn7      1.0000 0.70658  0.88024  0.70659  Biso   1.000  Zn
  Zn8      1.0000 0.88023  0.70659  0.70659  Biso   1.000  Zn
  H1       1.0000 0.45480  0.45480  0.93480  Biso   1.000  H
  H2       1.0000 0.45480  0.45480  0.15560  Biso   1.000  H
  H3       1.0000 0.93480  0.15560  0.45480  Biso   1.000  H
  H4       1.0000 0.15560  0.93480  0.45480  Biso   1.000  H
  H5       1.0000 0.45480  0.93480  0.15560  Biso   1.000  H
  H6       1.0000 0.45480  0.15560  0.93480  Biso   1.000  H
  H7       1.0000 0.93480  0.45480  0.45480  Biso   1.000  H
  H8       1.0000 0.15560  0.45480  0.45480  Biso   1.000  H
  H9       1.0000 0.45480  0.15560  0.45480  Biso   1.000  H
  H10      1.0000 0.45480  0.93480  0.45480  Biso   1.000  H
  H11      1.0000 0.93480  0.45480  0.15560  Biso   1.000  H
  H12      1.0000 0.15560  0.45480  0.93480  Biso   1.000  H
  H13      1.0000 0.54520  0.54520  0.06520  Biso   1.000  H
  H14      1.0000 0.54520  0.54520  0.84440  Biso   1.000  H
  H15      1.0000 0.84440  0.06520  0.54520  Biso   1.000  H
  H16      1.0000 0.06520  0.84440  0.54520  Biso   1.000  H
  H17      1.0000 0.06520  0.54520  0.84440  Biso   1.000  H
  H18      1.0000 0.84440  0.54520  0.06520  Biso   1.000  H
  H19      1.0000 0.54520  0.06520  0.54520  Biso   1.000  H
  H20      1.0000 0.54520  0.84440  0.54520  Biso   1.000  H
  H21      1.0000 0.84440  0.54520  0.54520  Biso   1.000  H
  H22      1.0000 0.06520  0.54520  0.54520  Biso   1.000  H
  H23      1.0000 0.54520  0.06520  0.84440  Biso   1.000  H
  H24      1.0000 0.54520  0.84440  0.06520  Biso   1.000  H
  C1       1.0000 0.47317  0.47317  0.96131  Biso   1.000  C
  C2       1.0000 0.47317  0.47317  0.09235  Biso   1.000  C
  C3       1.0000 0.96131  0.09235  0.47317  Biso   1.000  C
  C4       1.0000 0.09235  0.96131  0.47317  Biso   1.000  C
  C5       1.0000 0.47317  0.96131  0.09235  Biso   1.000  C
  C6       1.0000 0.47317  0.09235  0.96131  Biso   1.000  C
  C7       1.0000 0.96131  0.47317  0.47317  Biso   1.000  C
  C8       1.0000 0.09235  0.47317  0.47317  Biso   1.000  C
  C9       1.0000 0.47317  0.09235  0.47317  Biso   1.000  C
  C10      1.0000 0.47317  0.96131  0.47317  Biso   1.000  C
  C11      1.0000 0.96131  0.47317  0.09235  Biso   1.000  C
  C12      1.0000 0.09235  0.47317  0.96131  Biso   1.000  C
  C13      1.0000 0.52683  0.52683  0.03869  Biso   1.000  C
  C14      1.0000 0.52683  0.52683  0.90765  Biso   1.000  C
  C15      1.0000 0.90765  0.03869  0.52683  Biso   1.000  C
  C16      1.0000 0.03869  0.90765  0.52683  Biso   1.000  C
  C17      1.0000 0.03869  0.52683  0.90765  Biso   1.000  C
  C18      1.0000 0.90765  0.52683  0.03869  Biso   1.000  C
  C19      1.0000 0.52683  0.03869  0.52683  Biso   1.000  C
  C20      1.0000 0.52683  0.90765  0.52683  Biso   1.000  C
  C21      1.0000 0.90765  0.52683  0.52683  Biso   1.000  C
  C22      1.0000 0.03869  0.52683  0.52683  Biso   1.000  C
  C23      1.0000 0.52683  0.03869  0.90765  Biso   1.000  C
  C24      1.0000 0.52683  0.90765  0.03869  Biso   1.000  C
  C25      1.0000 0.38843  0.38843  0.11157  Biso   1.000  C
  C26      1.0000 0.44641  0.44641  0.05359  Biso   1.000  C
  C27      1.0000 0.11157  0.11157  0.38843  Biso   1.000  C
  C28      1.0000 0.05359  0.05359  0.44641  Biso   1.000  C
  C29      1.0000 0.38843  0.11157  0.11157  Biso   1.000  C
  C30      1.0000 0.44641  0.05359  0.05359  Biso   1.000  C
  C31      1.0000 0.11157  0.38843  0.38843  Biso   1.000  C
  C32      1.0000 0.05359  0.44641  0.44641  Biso   1.000  C
  C33      1.0000 0.38843  0.11157  0.38843  Biso   1.000  C
  C34      1.0000 0.44641  0.05359  0.44641  Biso   1.000  C
  C35      1.0000 0.11157  0.38843  0.11157  Biso   1.000  C
  C36      1.0000 0.05359  0.44641  0.05359  Biso   1.000  C
  C37      1.0000 0.61157  0.61157  0.88843  Biso   1.000  C
  C38      1.0000 0.55359  0.55359  0.94641  Biso   1.000  C
  C39      1.0000 0.88843  0.88843  0.61157  Biso   1.000  C
  C40      1.0000 0.94641  0.94641  0.55359  Biso   1.000  C
  C41      1.0000 0.88843  0.61157  0.88843  Biso   1.000  C
  C42      1.0000 0.94641  0.55359  0.94641  Biso   1.000  C
  C43      1.0000 0.61157  0.88843  0.61157  Biso   1.000  C
  C44      1.0000 0.55359  0.94641  0.55359  Biso   1.000  C
  C45      1.0000 0.88843  0.61157  0.61157  Biso   1.000  C
  C46      1.0000 0.94641  0.55359  0.55359  Biso   1.000  C
  C47      1.0000 0.61157  0.88843  0.88843  Biso   1.000  C
  C48      1.0000 0.55359  0.94641  0.94641  Biso   1.000  C
  O1       1.0000 0.25000  0.25000  0.25000  Biso   1.000  O
  O2       1.0000 0.75000  0.75000  0.75000  Biso   1.000  O
  O3       1.0000 0.36629  0.36629  0.07237  Biso   1.000  O
  O4       1.0000 0.36629  0.36629  0.19505  Biso   1.000  O
  O5       1.0000 0.07237  0.19505  0.36629  Biso   1.000  O
  O6       1.0000 0.19505  0.07237  0.36629  Biso   1.000  O
  O7       1.0000 0.36629  0.07237  0.19505  Biso   1.000  O
  O8       1.0000 0.36629  0.19505  0.07237  Biso   1.000  O
  O9       1.0000 0.07237  0.36629  0.36629  Biso   1.000  O
  O10      1.0000 0.19505  0.36629  0.36629  Biso   1.000  O
  O11      1.0000 0.36629  0.19505  0.36629  Biso   1.000  O
  O12      1.0000 0.36629  0.07237  0.36629  Biso   1.000  O
  O13      1.0000 0.07237  0.36629  0.19505  Biso   1.000  O
  O14      1.0000 0.19505  0.36629  0.07237  Biso   1.000  O
  O15      1.0000 0.63371  0.63371  0.92763  Biso   1.000  O
  O16      1.0000 0.63371  0.63371  0.80495  Biso   1.000  O
  O17      1.0000 0.80495  0.92763  0.63371  Biso   1.000  O
  O18      1.0000 0.92763  0.80495  0.63371  Biso   1.000  O
  O19      1.0000 0.92763  0.63371  0.80495  Biso   1.000  O
  O20      1.0000 0.80495  0.63371  0.92763  Biso   1.000  O
  O21      1.0000 0.63371  0.92763  0.63371  Biso   1.000  O
  O22      1.0000 0.63371  0.80495  0.63371  Biso   1.000  O
  O23      1.0000 0.80495  0.63371  0.63371  Biso   1.000  O
  O24      1.0000 0.92763  0.63371  0.63371  Biso   1.000  O
  O25      1.0000 0.63371  0.92763  0.80495  Biso   1.000  O
  O26      1.0000 0.63371  0.80495  0.92763  Biso   1.000  O
  Zn9      1.0000 0.00549  0.83838  0.13379  Biso   1.000  Zn
  Zn10     1.0000 0.00549  0.01355  0.13379  Biso   1.000  Zn
  Zn11     1.0000 0.83032  0.01355  0.13379  Biso   1.000  Zn
  Zn12     1.0000 0.00549  0.01355  0.95862  Biso   1.000  Zn
  Zn13     1.0000 0.41767  0.42605  0.54628  Biso   1.000  Zn
  Zn14     1.0000 0.41767  0.60122  0.54628  Biso   1.000  Zn
  Zn15     1.0000 0.59284  0.42605  0.54628  Biso   1.000  Zn
  Zn16     1.0000 0.41767  0.42605  0.72146  Biso   1.000  Zn
  H25      1.0000 0.87282  0.65691  0.29087  Biso   1.000  H
  H26      1.0000 0.16257  0.17063  0.00111  Biso   1.000  H
  H27      1.0000 0.64885  0.88087  0.29087  Biso   1.000  H
  H28      1.0000 0.16257  0.17063  0.77715  Biso   1.000  H
  H29      1.0000 0.64885  0.17063  0.00111  Biso   1.000  H
  H30      1.0000 0.16257  0.88087  0.29087  Biso   1.000  H
  H31      1.0000 0.87282  0.17063  0.77715  Biso   1.000  H
  H32      1.0000 0.16257  0.65691  0.29087  Biso   1.000  H
  H33      1.0000 0.16257  0.88087  0.77715  Biso   1.000  H
  H34      1.0000 0.87282  0.17063  0.29087  Biso   1.000  H
  H35      1.0000 0.16257  0.65691  0.00111  Biso   1.000  H
  H36      1.0000 0.64885  0.17063  0.29087  Biso   1.000  H
  H37      1.0000 0.55035  0.26897  0.38921  Biso   1.000  H
  H38      1.0000 0.26060  0.78269  0.67896  Biso   1.000  H
  H39      1.0000 0.77431  0.26897  0.38921  Biso   1.000  H
  H40      1.0000 0.26060  0.55872  0.90293  Biso   1.000  H
  H41      1.0000 0.77431  0.26897  0.67896  Biso   1.000  H
  H42      1.0000 0.26060  0.78269  0.38921  Biso   1.000  H
  H43      1.0000 0.55035  0.26897  0.90293  Biso   1.000  H
  H44      1.0000 0.26060  0.55872  0.38921  Biso   1.000  H
  H45      1.0000 0.26060  0.26897  0.90293  Biso   1.000  H
  H46      1.0000 0.55035  0.78269  0.38921  Biso   1.000  H
  H47      1.0000 0.26060  0.26897  0.67896  Biso   1.000  H
  H48      1.0000 0.77431  0.55872  0.38921  Biso   1.000  H
  C49      1.0000 0.80363  0.68011  0.31386  Biso   1.000  C
  C50      1.0000 0.18557  0.19362  0.93192  Biso   1.000  C
  C51      1.0000 0.67205  0.81168  0.31386  Biso   1.000  C
  C52      1.0000 0.18557  0.19362  0.80034  Biso   1.000  C
  C53      1.0000 0.67205  0.19362  0.93192  Biso   1.000  C
  C54      1.0000 0.18557  0.81168  0.31386  Biso   1.000  C
  C55      1.0000 0.80363  0.19362  0.80034  Biso   1.000  C
  C56      1.0000 0.18557  0.68010  0.31386  Biso   1.000  C
  C57      1.0000 0.18557  0.81168  0.80034  Biso   1.000  C
  C58      1.0000 0.80363  0.19362  0.31386  Biso   1.000  C
  C59      1.0000 0.18557  0.68011  0.93192  Biso   1.000  C
  C60      1.0000 0.67205  0.19362  0.31386  Biso   1.000  C
  C61      1.0000 0.61954  0.24597  0.36621  Biso   1.000  C
  C62      1.0000 0.23760  0.75949  0.74815  Biso   1.000  C
  C63      1.0000 0.75112  0.24597  0.36621  Biso   1.000  C
  C64      1.0000 0.23760  0.62791  0.87973  Biso   1.000  C
  C65      1.0000 0.75112  0.24597  0.74815  Biso   1.000  C
  C66      1.0000 0.23760  0.75949  0.36621  Biso   1.000  C
  C67      1.0000 0.61954  0.24597  0.87973  Biso   1.000  C
  C68      1.0000 0.23760  0.62791  0.36621  Biso   1.000  C
  C69      1.0000 0.23760  0.24597  0.87973  Biso   1.000  C
  C70      1.0000 0.61954  0.75949  0.36621  Biso   1.000  C
  C71      1.0000 0.23760  0.24597  0.74815  Biso   1.000  C
  C72      1.0000 0.75112  0.62791  0.36621  Biso   1.000  C
  C73      1.0000 0.82022  0.82828  0.23148  Biso   1.000  C
  C74      1.0000 0.76673  0.77479  0.28497  Biso   1.000  C
  C75      1.0000 0.10318  0.11124  0.94852  Biso   1.000  C
  C76      1.0000 0.15667  0.16473  0.89503  Biso   1.000  C
  C77      1.0000 0.82022  0.11124  0.94852  Biso   1.000  C
  C78      1.0000 0.76673  0.16473  0.89503  Biso   1.000  C
  C79      1.0000 0.10318  0.82828  0.23148  Biso   1.000  C
  C80      1.0000 0.15667  0.77479  0.28497  Biso   1.000  C
  C81      1.0000 0.10318  0.82828  0.94852  Biso   1.000  C
  C82      1.0000 0.15667  0.77479  0.89503  Biso   1.000  C
  C83      1.0000 0.82022  0.11124  0.23148  Biso   1.000  C
  C84      1.0000 0.76673  0.16473  0.28497  Biso   1.000  C
  C85      1.0000 0.60294  0.32836  0.44860  Biso   1.000  C
  C86      1.0000 0.65643  0.27487  0.39511  Biso   1.000  C
  C87      1.0000 0.31999  0.61132  0.73155  Biso   1.000  C
  C88      1.0000 0.26649  0.66481  0.78505  Biso   1.000  C
  C89      1.0000 0.60294  0.32836  0.73155  Biso   1.000  C
  C90      1.0000 0.65643  0.27487  0.78505  Biso   1.000  C
  C91      1.0000 0.31999  0.61132  0.44860  Biso   1.000  C
  C92      1.0000 0.26650  0.66481  0.39511  Biso   1.000  C
  C93      1.0000 0.31999  0.32836  0.73155  Biso   1.000  C
  C94      1.0000 0.26650  0.27487  0.78505  Biso   1.000  C
  C95      1.0000 0.60294  0.61132  0.44860  Biso   1.000  C
  C96      1.0000 0.65643  0.66481  0.39511  Biso   1.000  C
  O27      1.0000 0.96170  0.96976  0.09000  Biso   1.000  O
  O28      1.0000 0.46146  0.46984  0.59008  Biso   1.000  O
  O29      1.0000 0.90681  0.79249  0.20608  Biso   1.000  O
  O30      1.0000 0.07778  0.08584  0.03511  Biso   1.000  O
  O31      1.0000 0.78443  0.91487  0.20608  Biso   1.000  O
  O32      1.0000 0.07778  0.08584  0.91273  Biso   1.000  O
  O33      1.0000 0.78443  0.08584  0.03511  Biso   1.000  O
  O34      1.0000 0.07778  0.91487  0.20608  Biso   1.000  O
  O35      1.0000 0.90681  0.08584  0.91273  Biso   1.000  O
  O36      1.0000 0.07778  0.79249  0.20608  Biso   1.000  O
  O37      1.0000 0.07778  0.91487  0.91273  Biso   1.000  O
  O38      1.0000 0.90681  0.08584  0.20608  Biso   1.000  O
  O39      1.0000 0.07778  0.79249  0.03511  Biso   1.000  O
  O40      1.0000 0.78443  0.08584  0.20608  Biso   1.000  O
  O41      1.0000 0.51636  0.35376  0.47400  Biso   1.000  O
  O42      1.0000 0.34538  0.64711  0.64497  Biso   1.000  O
  O43      1.0000 0.63874  0.35376  0.47400  Biso   1.000  O
  O44      1.0000 0.34538  0.52473  0.76735  Biso   1.000  O
  O45      1.0000 0.63874  0.35376  0.64497  Biso   1.000  O
  O46      1.0000 0.34538  0.64711  0.47400  Biso   1.000  O
  O47      1.0000 0.51636  0.35376  0.76735  Biso   1.000  O
  O48      1.0000 0.34538  0.52473  0.47400  Biso   1.000  O
  O49      1.0000 0.34538  0.35376  0.76735  Biso   1.000  O
  O50      1.0000 0.51636  0.64711  0.47400  Biso   1.000  O
  O51      1.0000 0.34538  0.35376  0.64497  Biso   1.000  O
