data_image0
_cell_length_a       18.2507
_cell_length_b       18.2507
_cell_length_c       18.2507
_cell_angle_alpha    60
_cell_angle_beta     60
_cell_angle_gamma    60

_symmetry_space_group_name_H-M    "P 1"
_symmetry_int_tables_number       1

loop_
  _symmetry_equiv_pos_as_xyz
  'x, y, z'

loop_
  _atom_site_label
  _atom_site_occupancy
  _atom_site_fract_x
  _atom_site_fract_y
  _atom_site_fract_z
  _atom_site_thermal_displace_type
  _atom_site_B_iso_or_equiv
  _atom_site_type_symbol
  C1       1.0000 0.29354  0.29353  0.11940  Biso   1.000  C
  C2       1.0000 0.29354  0.29353  0.29353  Biso   1.000  C
  C3       1.0000 0.11941  0.29353  0.29353  Biso   1.000  C
  C4       1.0000 0.29354  0.11940  0.29353  Biso   1.000  C
  C5       1.0000 0.70646  0.70647  0.88060  Biso   1.000  C
  C6       1.0000 0.70646  0.70647  0.70647  Biso   1.000  C
  C7       1.0000 0.70646  0.88060  0.70647  Biso   1.000  C
  C8       1.0000 0.88059  0.70647  0.70647  Biso   1.000  C
  C9       1.0000 0.45580  0.45580  0.93620  Biso   1.000  C
  C10      1.0000 0.45580  0.45580  0.15220  Biso   1.000  C
  C11      1.0000 0.93620  0.15220  0.45580  Biso   1.000  C
  C12      1.0000 0.15220  0.93620  0.45580  Biso   1.000  C
  C13      1.0000 0.45580  0.93620  0.15220  Biso   1.000  C
  C14      1.0000 0.45580  0.15220  0.93620  Biso   1.000  C
  C15      1.0000 0.93620  0.45580  0.45580  Biso   1.000  C
  C16      1.0000 0.15220  0.45580  0.45580  Biso   1.000  C
  C17      1.0000 0.45580  0.15220  0.45580  Biso   1.000  C
  C18      1.0000 0.45580  0.93620  0.45580  Biso   1.000  C
  C19      1.0000 0.93620  0.45580  0.15220  Biso   1.000  C
  C20      1.0000 0.15220  0.45580  0.93620  Biso   1.000  C
  C21      1.0000 0.54420  0.54420  0.06380  Biso   1.000  C
  C22      1.0000 0.54420  0.54420  0.84780  Biso   1.000  C
  C23      1.0000 0.84780  0.06380  0.54420  Biso   1.000  C
  C24      1.0000 0.06380  0.84780  0.54420  Biso   1.000  C
  C25      1.0000 0.06380  0.54420  0.84780  Biso   1.000  C
  C26      1.0000 0.84780  0.54420  0.06380  Biso   1.000  C
  C27      1.0000 0.54420  0.06380  0.54420  Biso   1.000  C
  C28      1.0000 0.54420  0.84780  0.54420  Biso   1.000  C
  C29      1.0000 0.84780  0.54420  0.54420  Biso   1.000  C
  C30      1.0000 0.06380  0.54420  0.54420  Biso   1.000  C
  C31      1.0000 0.54420  0.06380  0.84780  Biso   1.000  C
  C32      1.0000 0.54420  0.84780  0.06380  Biso   1.000  C
  C33      1.0000 0.47349  0.47349  0.96297  Biso   1.000  C
  C34      1.0000 0.47349  0.47349  0.09005  Biso   1.000  C
  C35      1.0000 0.96297  0.09005  0.47349  Biso   1.000  C
  C36      1.0000 0.09005  0.96297  0.47349  Biso   1.000  C
  C37      1.0000 0.47349  0.96297  0.09005  Biso   1.000  C
  C38      1.0000 0.47349  0.09005  0.96297  Biso   1.000  C
  C39      1.0000 0.96297  0.47349  0.47349  Biso   1.000  C
  C40      1.0000 0.09005  0.47349  0.47349  Biso   1.000  C
  C41      1.0000 0.47349  0.09005  0.47349  Biso   1.000  C
  C42      1.0000 0.47349  0.96297  0.47349  Biso   1.000  C
  C43      1.0000 0.96297  0.47349  0.09005  Biso   1.000  C
  C44      1.0000 0.09005  0.47349  0.96297  Biso   1.000  C
  C45      1.0000 0.52651  0.52651  0.03703  Biso   1.000  C
  C46      1.0000 0.52651  0.52651  0.90995  Biso   1.000  C
  C47      1.0000 0.90995  0.03703  0.52651  Biso   1.000  C
  C48      1.0000 0.03703  0.90995  0.52651  Biso   1.000  C
  C49      1.0000 0.03703  0.52651  0.90995  Biso   1.000  C
  C50      1.0000 0.90995  0.52651  0.03703  Biso   1.000  C
  C51      1.0000 0.52651  0.03703  0.52651  Biso   1.000  C
  C52      1.0000 0.52651  0.90995  0.52651  Biso   1.000  C
  C53      1.0000 0.90995  0.52651  0.52651  Biso   1.000  C
  C54      1.0000 0.03703  0.52651  0.52651  Biso   1.000  C
  C55      1.0000 0.52651  0.03703  0.90995  Biso   1.000  C
  C56      1.0000 0.52651  0.90995  0.03703  Biso   1.000  C
  C57      1.0000 0.38859  0.38859  0.11141  Biso   1.000  C
  C58      1.0000 0.44630  0.44630  0.05370  Biso   1.000  C
  C59      1.0000 0.11141  0.11141  0.38859  Biso   1.000  C
  C60      1.0000 0.05370  0.05370  0.44630  Biso   1.000  C
  C61      1.0000 0.38859  0.11141  0.11141  Biso   1.000  C
  C62      1.0000 0.44630  0.05370  0.05370  Biso   1.000  C
  C63      1.0000 0.11141  0.38859  0.38859  Biso   1.000  C
  C64      1.0000 0.05370  0.44630  0.44630  Biso   1.000  C
  C65      1.0000 0.38859  0.11141  0.38859  Biso   1.000  C
  C66      1.0000 0.44630  0.05370  0.44630  Biso   1.000  C
  C67      1.0000 0.11141  0.38859  0.11141  Biso   1.000  C
  C68      1.0000 0.05370  0.44630  0.05370  Biso   1.000  C
  C69      1.0000 0.61141  0.61141  0.88859  Biso   1.000  C
  C70      1.0000 0.55370  0.55370  0.94630  Biso   1.000  C
  C71      1.0000 0.88859  0.88859  0.61141  Biso   1.000  C
  C72      1.0000 0.94630  0.94630  0.55370  Biso   1.000  C
  C73      1.0000 0.88859  0.61141  0.88859  Biso   1.000  C
  C74      1.0000 0.94630  0.55370  0.94630  Biso   1.000  C
  C75      1.0000 0.61141  0.88859  0.61141  Biso   1.000  C
  C76      1.0000 0.55370  0.94630  0.55370  Biso   1.000  C
  C77      1.0000 0.88859  0.61141  0.61141  Biso   1.000  C
  C78      1.0000 0.94630  0.55370  0.55370  Biso   1.000  C
  C79      1.0000 0.61141  0.88859  0.88859  Biso   1.000  C
  C80      1.0000 0.55370  0.94630  0.94630  Biso   1.000  C
  C81      1.0000 0.25000  0.25000  0.25000  Biso   1.000  C
  C82      1.0000 0.75000  0.75000  0.75000  Biso   1.000  C
  C83      1.0000 0.36605  0.36605  0.07321  Biso   1.000  C
  C84      1.0000 0.36605  0.36605  0.19469  Biso   1.000  C
  C85      1.0000 0.07321  0.19469  0.36605  Biso   1.000  C
  C86      1.0000 0.19469  0.07321  0.36605  Biso   1.000  C
  C87      1.0000 0.36605  0.07321  0.19469  Biso   1.000  C
  C88      1.0000 0.36605  0.19469  0.07321  Biso   1.000  C
  C89      1.0000 0.07321  0.36605  0.36605  Biso   1.000  C
  C90      1.0000 0.19469  0.36605  0.36605  Biso   1.000  C
  C91      1.0000 0.36605  0.19469  0.36605  Biso   1.000  C
  C92      1.0000 0.36605  0.07321  0.36605  Biso   1.000  C
  C93      1.0000 0.07321  0.36605  0.19469  Biso   1.000  C
  C94      1.0000 0.19469  0.36605  0.07321  Biso   1.000  C
  C95      1.0000 0.63395  0.63395  0.92679  Biso   1.000  C
  C96      1.0000 0.63395  0.63395  0.80531  Biso   1.000  C
  C97      1.0000 0.80531  0.92679  0.63395  Biso   1.000  C
  C98      1.0000 0.92679  0.80531  0.63395  Biso   1.000  C
  C99      1.0000 0.92679  0.63395  0.80531  Biso   1.000  C
  C100     1.0000 0.80531  0.63395  0.92679  Biso   1.000  C
  C101     1.0000 0.63395  0.92679  0.63395  Biso   1.000  C
  C102     1.0000 0.63395  0.80531  0.63395  Biso   1.000  C
  C103     1.0000 0.80531  0.63395  0.63395  Biso   1.000  C
  C104     1.0000 0.92679  0.63395  0.63395  Biso   1.000  C
  C105     1.0000 0.63395  0.92679  0.80531  Biso   1.000  C
  C106     1.0000 0.63395  0.80531  0.92679  Biso   1.000  C
  O1       1.0000 0.47786  0.34573  0.67107  Biso   1.000  O
  O2       1.0000 0.65203  0.34573  0.49690  Biso   1.000  O
  O3       1.0000 0.47786  0.34573  0.49690  Biso   1.000  O
  O4       1.0000 0.47786  0.51990  0.49690  Biso   1.000  O
  O5       1.0000 0.06871  0.93155  0.90856  Biso   1.000  O
  O6       1.0000 0.89454  0.93155  0.08272  Biso   1.000  O
  O7       1.0000 0.06871  0.75739  0.08272  Biso   1.000  O
  O8       1.0000 0.06871  0.93155  0.08272  Biso   1.000  O
  O9       1.0000 0.61935  0.18355  0.85392  Biso   1.000  O
  O10      1.0000 0.83739  0.18355  0.63588  Biso   1.000  O
  O11      1.0000 0.31820  0.48471  0.33473  Biso   1.000  O
  O12      1.0000 0.31820  0.70275  0.33473  Biso   1.000  O
  O13      1.0000 0.31820  0.70275  0.63588  Biso   1.000  O
  O14      1.0000 0.31820  0.48471  0.85392  Biso   1.000  O
  O15      1.0000 0.61935  0.18355  0.33473  Biso   1.000  O
  O16      1.0000 0.83739  0.18355  0.33473  Biso   1.000  O
  O17      1.0000 0.83739  0.48471  0.33473  Biso   1.000  O
  O18      1.0000 0.61935  0.70275  0.33473  Biso   1.000  O
  O19      1.0000 0.31820  0.18355  0.63588  Biso   1.000  O
  O20      1.0000 0.31820  0.18355  0.85392  Biso   1.000  O
  O21      1.0000 0.92722  0.09373  0.72570  Biso   1.000  O
  O22      1.0000 0.70918  0.09373  0.94375  Biso   1.000  O
  O23      1.0000 0.22837  0.57453  0.24490  Biso   1.000  O
  O24      1.0000 0.22837  0.79258  0.24490  Biso   1.000  O
  O25      1.0000 0.22837  0.09373  0.94375  Biso   1.000  O
  O26      1.0000 0.22837  0.09373  0.72570  Biso   1.000  O
  O27      1.0000 0.92722  0.57453  0.24490  Biso   1.000  O
  O28      1.0000 0.70918  0.79258  0.24490  Biso   1.000  O
  O29      1.0000 0.70918  0.09373  0.24490  Biso   1.000  O
  O30      1.0000 0.92722  0.09373  0.24490  Biso   1.000  O
  O31      1.0000 0.22837  0.57453  0.94375  Biso   1.000  O
  O32      1.0000 0.22837  0.79258  0.72570  Biso   1.000  O
  O33      1.0000 0.68284  0.16532  0.82690  Biso   1.000  O
  O34      1.0000 0.81038  0.16532  0.69937  Biso   1.000  O
  O35      1.0000 0.29996  0.54820  0.31649  Biso   1.000  O
  O36      1.0000 0.29996  0.67573  0.31649  Biso   1.000  O
  O37      1.0000 0.29996  0.67573  0.69937  Biso   1.000  O
  O38      1.0000 0.29996  0.54820  0.82690  Biso   1.000  O
  O39      1.0000 0.68284  0.16532  0.31649  Biso   1.000  O
  O40      1.0000 0.81038  0.16532  0.31649  Biso   1.000  O
  O41      1.0000 0.81038  0.54820  0.31649  Biso   1.000  O
  O42      1.0000 0.68284  0.67573  0.31649  Biso   1.000  O
  O43      1.0000 0.29996  0.16532  0.69937  Biso   1.000  O
  O44      1.0000 0.29996  0.16532  0.82690  Biso   1.000  O
  O45      1.0000 0.86373  0.11197  0.75272  Biso   1.000  O
  O46      1.0000 0.73619  0.11197  0.88026  Biso   1.000  O
  O47      1.0000 0.24661  0.60155  0.26314  Biso   1.000  O
  O48      1.0000 0.24661  0.72909  0.26314  Biso   1.000  O
  O49      1.0000 0.24661  0.11197  0.88026  Biso   1.000  O
  O50      1.0000 0.24661  0.11197  0.75272  Biso   1.000  O
  O51      1.0000 0.86373  0.60155  0.26314  Biso   1.000  O
  O52      1.0000 0.73619  0.72909  0.26314  Biso   1.000  O
  O53      1.0000 0.73619  0.11197  0.26314  Biso   1.000  O
  O54      1.0000 0.86373  0.11197  0.26314  Biso   1.000  O
  O55      1.0000 0.24661  0.60155  0.88026  Biso   1.000  O
  O56      1.0000 0.24661  0.72909  0.75272  Biso   1.000  O
  O57      1.0000 0.66015  0.25052  0.67919  Biso   1.000  O
  O58      1.0000 0.71827  0.19241  0.73730  Biso   1.000  O
  O59      1.0000 0.38266  0.52802  0.40169  Biso   1.000  O
  O60      1.0000 0.32454  0.58613  0.34358  Biso   1.000  O
  O61      1.0000 0.38266  0.52802  0.67919  Biso   1.000  O
  O62      1.0000 0.32454  0.58613  0.73730  Biso   1.000  O
  O63      1.0000 0.66015  0.25052  0.40169  Biso   1.000  O
  O64      1.0000 0.71827  0.19241  0.34358  Biso   1.000  O
  O65      1.0000 0.66015  0.52802  0.40169  Biso   1.000  O
  O66      1.0000 0.71827  0.58613  0.34358  Biso   1.000  O
  O67      1.0000 0.38266  0.25052  0.67919  Biso   1.000  O
  O68      1.0000 0.32454  0.19241  0.73730  Biso   1.000  O
  O69      1.0000 0.88642  0.02676  0.90044  Biso   1.000  O
  O70      1.0000 0.82831  0.08488  0.84232  Biso   1.000  O
  O71      1.0000 0.16392  0.74927  0.17793  Biso   1.000  O
  O72      1.0000 0.22203  0.69115  0.23605  Biso   1.000  O
  O73      1.0000 0.16392  0.02676  0.90044  Biso   1.000  O
  O74      1.0000 0.22203  0.08488  0.84232  Biso   1.000  O
  O75      1.0000 0.88642  0.74927  0.17793  Biso   1.000  O
  O76      1.0000 0.82831  0.69115  0.23605  Biso   1.000  O
  O77      1.0000 0.88642  0.02676  0.17793  Biso   1.000  O
  O78      1.0000 0.82831  0.08488  0.23605  Biso   1.000  O
  O79      1.0000 0.16392  0.74927  0.90044  Biso   1.000  O
  O80      1.0000 0.22203  0.69115  0.84232  Biso   1.000  O
  O81      1.0000 0.52140  0.38927  0.54044  Biso   1.000  O
  O82      1.0000 0.02517  0.88801  0.03919  Biso   1.000  O
  O83      1.0000 0.57661  0.27285  0.71807  Biso   1.000  O
  O84      1.0000 0.69904  0.27285  0.59565  Biso   1.000  O
  O85      1.0000 0.40498  0.44448  0.42402  Biso   1.000  O
  O86      1.0000 0.40498  0.56690  0.42402  Biso   1.000  O
  O87      1.0000 0.40498  0.56690  0.59565  Biso   1.000  O
  O88      1.0000 0.40498  0.44448  0.71808  Biso   1.000  O
  O89      1.0000 0.57661  0.27285  0.42402  Biso   1.000  O
  O90      1.0000 0.69904  0.27285  0.42402  Biso   1.000  O
  O91      1.0000 0.69904  0.44448  0.42402  Biso   1.000  O
  O92      1.0000 0.57661  0.56690  0.42402  Biso   1.000  O
  O93      1.0000 0.40498  0.27285  0.59565  Biso   1.000  O
  O94      1.0000 0.40498  0.27285  0.71808  Biso   1.000  O
  O95      1.0000 0.96996  0.00444  0.86155  Biso   1.000  O
  O96      1.0000 0.84753  0.00444  0.98398  Biso   1.000  O
  O97      1.0000 0.14159  0.71038  0.15561  Biso   1.000  O
  O98      1.0000 0.14159  0.83281  0.15561  Biso   1.000  O
  O99      1.0000 0.14159  0.00444  0.98398  Biso   1.000  O
  O100     1.0000 0.14159  0.00444  0.86155  Biso   1.000  O
  O101     1.0000 0.96996  0.71038  0.15561  Biso   1.000  O
  O102     1.0000 0.84753  0.83281  0.15561  Biso   1.000  O
  O103     1.0000 0.84753  0.00444  0.15561  Biso   1.000  O
  O104     1.0000 0.96996  0.00444  0.15561  Biso   1.000  O
  O105     1.0000 0.14159  0.71038  0.98398  Biso   1.000  O
