data_image0
_cell_length_a       18.2965
_cell_length_b       18.2965
_cell_length_c       18.2965
_cell_angle_alpha    60
_cell_angle_beta     60
_cell_angle_gamma    60

_symmetry_space_group_name_H-M    "P 1"
_symmetry_int_tables_number       1

loop_
  _symmetry_equiv_pos_as_xyz
  'x, y, z'

loop_
  _atom_site_label
  _atom_site_occupancy
  _atom_site_fract_x
  _atom_site_fract_y
  _atom_site_fract_z
  _atom_site_thermal_displace_type
  _atom_site_B_iso_or_equiv
  _atom_site_type_symbol
  C1       1.0000 0.29344  0.29343  0.11970  Biso   1.000  C
  C2       1.0000 0.29344  0.29343  0.29343  Biso   1.000  C
  C3       1.0000 0.11971  0.29343  0.29343  Biso   1.000  C
  C4       1.0000 0.29344  0.11970  0.29343  Biso   1.000  C
  C5       1.0000 0.70656  0.70657  0.88030  Biso   1.000  C
  C6       1.0000 0.70656  0.70657  0.70657  Biso   1.000  C
  C7       1.0000 0.70656  0.88030  0.70657  Biso   1.000  C
  C8       1.0000 0.88029  0.70657  0.70657  Biso   1.000  C
  C9       1.0000 0.45520  0.45520  0.93480  Biso   1.000  C
  C10      1.0000 0.45520  0.45520  0.15480  Biso   1.000  C
  C11      1.0000 0.93480  0.15480  0.45520  Biso   1.000  C
  C12      1.0000 0.15480  0.93480  0.45520  Biso   1.000  C
  C13      1.0000 0.45520  0.93480  0.15480  Biso   1.000  C
  C14      1.0000 0.45520  0.15480  0.93480  Biso   1.000  C
  C15      1.0000 0.93480  0.45520  0.45520  Biso   1.000  C
  C16      1.0000 0.15480  0.45520  0.45520  Biso   1.000  C
  C17      1.0000 0.45520  0.15480  0.45520  Biso   1.000  C
  C18      1.0000 0.45520  0.93480  0.45520  Biso   1.000  C
  C19      1.0000 0.93480  0.45520  0.15480  Biso   1.000  C
  C20      1.0000 0.15480  0.45520  0.93480  Biso   1.000  C
  C21      1.0000 0.54480  0.54480  0.06520  Biso   1.000  C
  C22      1.0000 0.54480  0.54480  0.84520  Biso   1.000  C
  C23      1.0000 0.84520  0.06520  0.54480  Biso   1.000  C
  C24      1.0000 0.06520  0.84520  0.54480  Biso   1.000  C
  C25      1.0000 0.06520  0.54480  0.84520  Biso   1.000  C
  C26      1.0000 0.84520  0.54480  0.06520  Biso   1.000  C
  C27      1.0000 0.54480  0.06520  0.54480  Biso   1.000  C
  C28      1.0000 0.54480  0.84520  0.54480  Biso   1.000  C
  C29      1.0000 0.84520  0.54480  0.54480  Biso   1.000  C
  C30      1.0000 0.06520  0.54480  0.54480  Biso   1.000  C
  C31      1.0000 0.54480  0.06520  0.84520  Biso   1.000  C
  C32      1.0000 0.54480  0.84520  0.06520  Biso   1.000  C
  C33      1.0000 0.47339  0.47339  0.96175  Biso   1.000  C
  C34      1.0000 0.47339  0.47339  0.09147  Biso   1.000  C
  C35      1.0000 0.96175  0.09147  0.47339  Biso   1.000  C
  C36      1.0000 0.09147  0.96175  0.47339  Biso   1.000  C
  C37      1.0000 0.47339  0.96175  0.09147  Biso   1.000  C
  C38      1.0000 0.47339  0.09147  0.96175  Biso   1.000  C
  C39      1.0000 0.96175  0.47339  0.47339  Biso   1.000  C
  C40      1.0000 0.09147  0.47339  0.47339  Biso   1.000  C
  C41      1.0000 0.47339  0.09147  0.47339  Biso   1.000  C
  C42      1.0000 0.47339  0.96175  0.47339  Biso   1.000  C
  C43      1.0000 0.96175  0.47339  0.09147  Biso   1.000  C
  C44      1.0000 0.09147  0.47339  0.96175  Biso   1.000  C
  C45      1.0000 0.52661  0.52661  0.03825  Biso   1.000  C
  C46      1.0000 0.52661  0.52661  0.90853  Biso   1.000  C
  C47      1.0000 0.90853  0.03825  0.52661  Biso   1.000  C
  C48      1.0000 0.03825  0.90853  0.52661  Biso   1.000  C
  C49      1.0000 0.03825  0.52661  0.90853  Biso   1.000  C
  C50      1.0000 0.90853  0.52661  0.03825  Biso   1.000  C
  C51      1.0000 0.52661  0.03825  0.52661  Biso   1.000  C
  C52      1.0000 0.52661  0.90853  0.52661  Biso   1.000  C
  C53      1.0000 0.90853  0.52661  0.52661  Biso   1.000  C
  C54      1.0000 0.03825  0.52661  0.52661  Biso   1.000  C
  C55      1.0000 0.52661  0.03825  0.90853  Biso   1.000  C
  C56      1.0000 0.52661  0.90853  0.03825  Biso   1.000  C
  C57      1.0000 0.38840  0.38840  0.11160  Biso   1.000  C
  C58      1.0000 0.44637  0.44637  0.05363  Biso   1.000  C
  C59      1.0000 0.11160  0.11160  0.38840  Biso   1.000  C
  C60      1.0000 0.05363  0.05363  0.44637  Biso   1.000  C
  C61      1.0000 0.38840  0.11160  0.11160  Biso   1.000  C
  C62      1.0000 0.44637  0.05363  0.05363  Biso   1.000  C
  C63      1.0000 0.11160  0.38840  0.38840  Biso   1.000  C
  C64      1.0000 0.05363  0.44637  0.44637  Biso   1.000  C
  C65      1.0000 0.38840  0.11160  0.38840  Biso   1.000  C
  C66      1.0000 0.44637  0.05363  0.44637  Biso   1.000  C
  C67      1.0000 0.11160  0.38840  0.11160  Biso   1.000  C
  C68      1.0000 0.05363  0.44637  0.05363  Biso   1.000  C
  C69      1.0000 0.61160  0.61160  0.88840  Biso   1.000  C
  C70      1.0000 0.55363  0.55363  0.94637  Biso   1.000  C
  C71      1.0000 0.88840  0.88840  0.61160  Biso   1.000  C
  C72      1.0000 0.94637  0.94637  0.55363  Biso   1.000  C
  C73      1.0000 0.88840  0.61160  0.88840  Biso   1.000  C
  C74      1.0000 0.94637  0.55363  0.94637  Biso   1.000  C
  C75      1.0000 0.61160  0.88840  0.61160  Biso   1.000  C
  C76      1.0000 0.55363  0.94637  0.55363  Biso   1.000  C
  C77      1.0000 0.88840  0.61160  0.61160  Biso   1.000  C
  C78      1.0000 0.94637  0.55363  0.55363  Biso   1.000  C
  C79      1.0000 0.61160  0.88840  0.88840  Biso   1.000  C
  C80      1.0000 0.55363  0.94637  0.94637  Biso   1.000  C
  C81      1.0000 0.25000  0.25000  0.25000  Biso   1.000  C
  C82      1.0000 0.75000  0.75000  0.75000  Biso   1.000  C
  C83      1.0000 0.36613  0.36613  0.07281  Biso   1.000  C
  C84      1.0000 0.36613  0.36613  0.19493  Biso   1.000  C
  C85      1.0000 0.07281  0.19493  0.36613  Biso   1.000  C
  C86      1.0000 0.19493  0.07281  0.36613  Biso   1.000  C
  C87      1.0000 0.36613  0.07281  0.19493  Biso   1.000  C
  C88      1.0000 0.36613  0.19493  0.07281  Biso   1.000  C
  C89      1.0000 0.07281  0.36613  0.36613  Biso   1.000  C
  C90      1.0000 0.19493  0.36613  0.36613  Biso   1.000  C
  C91      1.0000 0.36613  0.19493  0.36613  Biso   1.000  C
  C92      1.0000 0.36613  0.07281  0.36613  Biso   1.000  C
  C93      1.0000 0.07281  0.36613  0.19493  Biso   1.000  C
  C94      1.0000 0.19493  0.36613  0.07281  Biso   1.000  C
  C95      1.0000 0.63387  0.63387  0.92719  Biso   1.000  C
  C96      1.0000 0.63387  0.63387  0.80507  Biso   1.000  C
  C97      1.0000 0.80507  0.92719  0.63387  Biso   1.000  C
  C98      1.0000 0.92719  0.80507  0.63387  Biso   1.000  C
  C99      1.0000 0.92719  0.63387  0.80507  Biso   1.000  C
  C100     1.0000 0.80507  0.63387  0.92719  Biso   1.000  C
  C101     1.0000 0.63387  0.92719  0.63387  Biso   1.000  C
  C102     1.0000 0.63387  0.80507  0.63387  Biso   1.000  C
  C103     1.0000 0.80507  0.63387  0.63387  Biso   1.000  C
  C104     1.0000 0.92719  0.63387  0.63387  Biso   1.000  C
  C105     1.0000 0.63387  0.92719  0.80507  Biso   1.000  C
  C106     1.0000 0.63387  0.80507  0.92719  Biso   1.000  C
  O1       1.0000 0.17193  0.97214  0.87020  Biso   1.000  O
  O2       1.0000 0.58594  0.38614  0.45619  Biso   1.000  O
  O3       1.0000 0.41200  0.56008  0.45619  Biso   1.000  O
  O4       1.0000 0.99800  0.14608  0.87020  Biso   1.000  O
  O5       1.0000 0.99780  0.97194  0.04428  Biso   1.000  O
  O6       1.0000 0.99793  0.97207  0.86999  Biso   1.000  O
  O7       1.0000 0.58613  0.56027  0.28211  Biso   1.000  O
  O8       1.0000 0.58601  0.56015  0.45640  Biso   1.000  O
  O9       1.0000 0.83567  0.33098  0.01126  Biso   1.000  O
  O10      1.0000 0.83256  0.11296  0.22465  Biso   1.000  O
  O11      1.0000 0.83928  0.32900  0.70948  Biso   1.000  O
  O12      1.0000 0.83877  0.11179  0.70419  Biso   1.000  O
  O13      1.0000 0.35595  0.11239  0.71127  Biso   1.000  O
  O14      1.0000 0.22709  0.72241  0.31513  Biso   1.000  O
  O15      1.0000 0.44512  0.72551  0.10174  Biso   1.000  O
  O16      1.0000 0.22907  0.71880  0.61691  Biso   1.000  O
  O17      1.0000 0.44629  0.71930  0.62220  Biso   1.000  O
  O18      1.0000 0.44568  0.20212  0.61512  Biso   1.000  O
  O19      1.0000 0.74826  0.20124  0.31513  Biso   1.000  O
  O20      1.0000 0.75137  0.41926  0.10174  Biso   1.000  O
  O21      1.0000 0.74465  0.20322  0.61691  Biso   1.000  O
  O22      1.0000 0.74516  0.42043  0.62220  Biso   1.000  O
  O23      1.0000 0.22798  0.41983  0.61512  Biso   1.000  O
  O24      1.0000 0.35684  0.80981  0.01126  Biso   1.000  O
  O25      1.0000 0.13881  0.80671  0.22465  Biso   1.000  O
  O26      1.0000 0.35486  0.81342  0.70948  Biso   1.000  O
  O27      1.0000 0.13765  0.81292  0.70419  Biso   1.000  O
  O28      1.0000 0.13825  0.33010  0.71127  Biso   1.000  O
  O29      1.0000 0.83696  0.81111  0.01056  Biso   1.000  O
  O30      1.0000 0.83426  0.80840  0.22854  Biso   1.000  O
  O31      1.0000 0.74697  0.72111  0.31583  Biso   1.000  O
  O32      1.0000 0.74967  0.72381  0.09785  Biso   1.000  O
  O33      1.0000 0.90350  0.15576  0.04987  Biso   1.000  O
  O34      1.0000 0.84484  0.21262  0.11012  Biso   1.000  O
  O35      1.0000 0.81881  0.30454  0.07341  Biso   1.000  O
  O36      1.0000 0.81700  0.17501  0.19911  Biso   1.000  O
  O37      1.0000 0.90391  0.15458  0.77392  Biso   1.000  O
  O38      1.0000 0.84815  0.21015  0.71716  Biso   1.000  O
  O39      1.0000 0.82043  0.30336  0.69202  Biso   1.000  O
  O40      1.0000 0.82002  0.17364  0.68863  Biso   1.000  O
  O41      1.0000 0.32972  0.17434  0.69182  Biso   1.000  O
  O42      1.0000 0.40231  0.65457  0.27653  Biso   1.000  O
  O43      1.0000 0.34546  0.71323  0.21627  Biso   1.000  O
  O44      1.0000 0.25353  0.73927  0.25298  Biso   1.000  O
  O45      1.0000 0.38307  0.74107  0.12728  Biso   1.000  O
  O46      1.0000 0.40349  0.65416  0.55247  Biso   1.000  O
  O47      1.0000 0.34793  0.70992  0.60923  Biso   1.000  O
  O48      1.0000 0.25471  0.73765  0.63437  Biso   1.000  O
  O49      1.0000 0.38444  0.73805  0.63776  Biso   1.000  O
  O50      1.0000 0.38373  0.22836  0.63457  Biso   1.000  O
  O51      1.0000 0.68044  0.37645  0.27653  Biso   1.000  O
  O52      1.0000 0.73910  0.31959  0.21627  Biso   1.000  O
  O53      1.0000 0.76512  0.22768  0.25298  Biso   1.000  O
  O54      1.0000 0.76693  0.35721  0.12728  Biso   1.000  O
  O55      1.0000 0.68002  0.37764  0.55247  Biso   1.000  O
  O56      1.0000 0.73578  0.32207  0.60923  Biso   1.000  O
  O57      1.0000 0.76350  0.22886  0.63437  Biso   1.000  O
  O58      1.0000 0.76391  0.35858  0.63776  Biso   1.000  O
  O59      1.0000 0.25421  0.35788  0.63457  Biso   1.000  O
  O60      1.0000 0.18162  0.87764  0.04987  Biso   1.000  O
  O61      1.0000 0.23848  0.81898  0.11012  Biso   1.000  O
  O62      1.0000 0.33040  0.79295  0.07341  Biso   1.000  O
  O63      1.0000 0.20086  0.79115  0.19911  Biso   1.000  O
  O64      1.0000 0.18044  0.87806  0.77392  Biso   1.000  O
  O65      1.0000 0.23601  0.82229  0.71716  Biso   1.000  O
  O66      1.0000 0.32922  0.79456  0.69202  Biso   1.000  O
  O67      1.0000 0.19950  0.79416  0.68863  Biso   1.000  O
  O68      1.0000 0.20020  0.30386  0.69182  Biso   1.000  O
  O69      1.0000 0.90180  0.87595  0.05645  Biso   1.000  O
  O70      1.0000 0.84584  0.81998  0.10932  Biso   1.000  O
  O71      1.0000 0.81930  0.79345  0.07241  Biso   1.000  O
  O72      1.0000 0.81690  0.79105  0.20111  Biso   1.000  O
  O73      1.0000 0.17754  0.15169  0.77911  Biso   1.000  O
  O74      1.0000 0.23760  0.21175  0.71726  Biso   1.000  O
  O75      1.0000 0.68213  0.65627  0.26994  Biso   1.000  O
  O76      1.0000 0.73810  0.71224  0.21707  Biso   1.000  O
  O77      1.0000 0.76463  0.73877  0.25398  Biso   1.000  O
  O78      1.0000 0.76703  0.74117  0.12529  Biso   1.000  O
  O79      1.0000 0.40639  0.38053  0.54728  Biso   1.000  O
  O80      1.0000 0.34633  0.32047  0.60913  Biso   1.000  O
  O81      1.0000 0.92355  0.07027  0.09326  Biso   1.000  O
  O82      1.0000 0.92595  0.19617  0.96736  Biso   1.000  O
  O83      1.0000 0.92326  0.06919  0.79916  Biso   1.000  O
  O84      1.0000 0.92546  0.19468  0.79637  Biso   1.000  O
  O85      1.0000 0.21984  0.06889  0.79866  Biso   1.000  O
  O86      1.0000 0.48781  0.63453  0.23313  Biso   1.000  O
  O87      1.0000 0.36191  0.63212  0.35903  Biso   1.000  O
  O88      1.0000 0.48889  0.63481  0.52723  Biso   1.000  O
  O89      1.0000 0.36339  0.63261  0.53002  Biso   1.000  O
  O90      1.0000 0.48919  0.33823  0.52773  Biso   1.000  O
  O91      1.0000 0.66039  0.46195  0.23313  Biso   1.000  O
  O92      1.0000 0.65799  0.33605  0.35903  Biso   1.000  O
  O93      1.0000 0.66067  0.46303  0.52723  Biso   1.000  O
  O94      1.0000 0.65848  0.33753  0.53002  Biso   1.000  O
  O95      1.0000 0.36409  0.46333  0.52773  Biso   1.000  O
  O96      1.0000 0.09613  0.89769  0.09326  Biso   1.000  O
  O97      1.0000 0.22203  0.90009  0.96736  Biso   1.000  O
  O98      1.0000 0.09505  0.89741  0.79916  Biso   1.000  O
  O99      1.0000 0.22054  0.89960  0.79637  Biso   1.000  O
  O100     1.0000 0.09474  0.19398  0.79866  Biso   1.000  O
  O101     1.0000 0.04127  0.01541  0.91399  Biso   1.000  O
  O102     1.0000 0.92494  0.89909  0.09226  Biso   1.000  O
  O103     1.0000 0.92336  0.89750  0.97205  Biso   1.000  O
  O104     1.0000 0.54266  0.51680  0.41240  Biso   1.000  O
  O105     1.0000 0.65899  0.63313  0.23413  Biso   1.000  O
