data_image0
_cell_length_a       18.2507
_cell_length_b       18.2507
_cell_length_c       18.2507
_cell_angle_alpha    60
_cell_angle_beta     60
_cell_angle_gamma    60

_symmetry_space_group_name_H-M    "P 1"
_symmetry_int_tables_number       1

loop_
  _symmetry_equiv_pos_as_xyz
  'x, y, z'

loop_
  _atom_site_label
  _atom_site_occupancy
  _atom_site_fract_x
  _atom_site_fract_y
  _atom_site_fract_z
  _atom_site_thermal_displace_type
  _atom_site_B_iso_or_equiv
  _atom_site_type_symbol
  Zn1      1.0000 0.29354  0.29353  0.11940  Biso   1.000  Zn
  Zn2      1.0000 0.29354  0.29353  0.29353  Biso   1.000  Zn
  Zn3      1.0000 0.11941  0.29353  0.29353  Biso   1.000  Zn
  Zn4      1.0000 0.29354  0.11940  0.29353  Biso   1.000  Zn
  Zn5      1.0000 0.70646  0.70647  0.88060  Biso   1.000  Zn
  Zn6      1.0000 0.70646  0.70647  0.70647  Biso   1.000  Zn
  Zn7      1.0000 0.70646  0.88060  0.70647  Biso   1.000  Zn
  Zn8      1.0000 0.88059  0.70647  0.70647  Biso   1.000  Zn
  H1       1.0000 0.45580  0.45580  0.93620  Biso   1.000  H
  H2       1.0000 0.45580  0.45580  0.15220  Biso   1.000  H
  H3       1.0000 0.93620  0.15220  0.45580  Biso   1.000  H
  H4       1.0000 0.15220  0.93620  0.45580  Biso   1.000  H
  H5       1.0000 0.45580  0.93620  0.15220  Biso   1.000  H
  H6       1.0000 0.45580  0.15220  0.93620  Biso   1.000  H
  H7       1.0000 0.93620  0.45580  0.45580  Biso   1.000  H
  H8       1.0000 0.15220  0.45580  0.45580  Biso   1.000  H
  H9       1.0000 0.45580  0.15220  0.45580  Biso   1.000  H
  H10      1.0000 0.45580  0.93620  0.45580  Biso   1.000  H
  H11      1.0000 0.93620  0.45580  0.15220  Biso   1.000  H
  H12      1.0000 0.15220  0.45580  0.93620  Biso   1.000  H
  H13      1.0000 0.54420  0.54420  0.06380  Biso   1.000  H
  H14      1.0000 0.54420  0.54420  0.84780  Biso   1.000  H
  H15      1.0000 0.84780  0.06380  0.54420  Biso   1.000  H
  H16      1.0000 0.06380  0.84780  0.54420  Biso   1.000  H
  H17      1.0000 0.06380  0.54420  0.84780  Biso   1.000  H
  H18      1.0000 0.84780  0.54420  0.06380  Biso   1.000  H
  H19      1.0000 0.54420  0.06380  0.54420  Biso   1.000  H
  H20      1.0000 0.54420  0.84780  0.54420  Biso   1.000  H
  H21      1.0000 0.84780  0.54420  0.54420  Biso   1.000  H
  H22      1.0000 0.06380  0.54420  0.54420  Biso   1.000  H
  H23      1.0000 0.54420  0.06380  0.84780  Biso   1.000  H
  H24      1.0000 0.54420  0.84780  0.06380  Biso   1.000  H
  C1       1.0000 0.47349  0.47349  0.96297  Biso   1.000  C
  C2       1.0000 0.47349  0.47349  0.09005  Biso   1.000  C
  C3       1.0000 0.96297  0.09005  0.47349  Biso   1.000  C
  C4       1.0000 0.09005  0.96297  0.47349  Biso   1.000  C
  C5       1.0000 0.47349  0.96297  0.09005  Biso   1.000  C
  C6       1.0000 0.47349  0.09005  0.96297  Biso   1.000  C
  C7       1.0000 0.96297  0.47349  0.47349  Biso   1.000  C
  C8       1.0000 0.09005  0.47349  0.47349  Biso   1.000  C
  C9       1.0000 0.47349  0.09005  0.47349  Biso   1.000  C
  C10      1.0000 0.47349  0.96297  0.47349  Biso   1.000  C
  C11      1.0000 0.96297  0.47349  0.09005  Biso   1.000  C
  C12      1.0000 0.09005  0.47349  0.96297  Biso   1.000  C
  C13      1.0000 0.52651  0.52651  0.03703  Biso   1.000  C
  C14      1.0000 0.52651  0.52651  0.90995  Biso   1.000  C
  C15      1.0000 0.90995  0.03703  0.52651  Biso   1.000  C
  C16      1.0000 0.03703  0.90995  0.52651  Biso   1.000  C
  C17      1.0000 0.03703  0.52651  0.90995  Biso   1.000  C
  C18      1.0000 0.90995  0.52651  0.03703  Biso   1.000  C
  C19      1.0000 0.52651  0.03703  0.52651  Biso   1.000  C
  C20      1.0000 0.52651  0.90995  0.52651  Biso   1.000  C
  C21      1.0000 0.90995  0.52651  0.52651  Biso   1.000  C
  C22      1.0000 0.03703  0.52651  0.52651  Biso   1.000  C
  C23      1.0000 0.52651  0.03703  0.90995  Biso   1.000  C
  C24      1.0000 0.52651  0.90995  0.03703  Biso   1.000  C
  C25      1.0000 0.38859  0.38859  0.11141  Biso   1.000  C
  C26      1.0000 0.44630  0.44630  0.05370  Biso   1.000  C
  C27      1.0000 0.11141  0.11141  0.38859  Biso   1.000  C
  C28      1.0000 0.05370  0.05370  0.44630  Biso   1.000  C
  C29      1.0000 0.38859  0.11141  0.11141  Biso   1.000  C
  C30      1.0000 0.44630  0.05370  0.05370  Biso   1.000  C
  C31      1.0000 0.11141  0.38859  0.38859  Biso   1.000  C
  C32      1.0000 0.05370  0.44630  0.44630  Biso   1.000  C
  C33      1.0000 0.38859  0.11141  0.38859  Biso   1.000  C
  C34      1.0000 0.44630  0.05370  0.44630  Biso   1.000  C
  C35      1.0000 0.11141  0.38859  0.11141  Biso   1.000  C
  C36      1.0000 0.05370  0.44630  0.05370  Biso   1.000  C
  C37      1.0000 0.61141  0.61141  0.88859  Biso   1.000  C
  C38      1.0000 0.55370  0.55370  0.94630  Biso   1.000  C
  C39      1.0000 0.88859  0.88859  0.61141  Biso   1.000  C
  C40      1.0000 0.94630  0.94630  0.55370  Biso   1.000  C
  C41      1.0000 0.88859  0.61141  0.88859  Biso   1.000  C
  C42      1.0000 0.94630  0.55370  0.94630  Biso   1.000  C
  C43      1.0000 0.61141  0.88859  0.61141  Biso   1.000  C
  C44      1.0000 0.55370  0.94630  0.55370  Biso   1.000  C
  C45      1.0000 0.88859  0.61141  0.61141  Biso   1.000  C
  C46      1.0000 0.94630  0.55370  0.55370  Biso   1.000  C
  C47      1.0000 0.61141  0.88859  0.88859  Biso   1.000  C
  C48      1.0000 0.55370  0.94630  0.94630  Biso   1.000  C
  O1       1.0000 0.25000  0.25000  0.25000  Biso   1.000  O
  O2       1.0000 0.75000  0.75000  0.75000  Biso   1.000  O
  O3       1.0000 0.36605  0.36605  0.07321  Biso   1.000  O
  O4       1.0000 0.36605  0.36605  0.19469  Biso   1.000  O
  O5       1.0000 0.07321  0.19469  0.36605  Biso   1.000  O
  O6       1.0000 0.19469  0.07321  0.36605  Biso   1.000  O
  O7       1.0000 0.36605  0.07321  0.19469  Biso   1.000  O
  O8       1.0000 0.36605  0.19469  0.07321  Biso   1.000  O
  O9       1.0000 0.07321  0.36605  0.36605  Biso   1.000  O
  O10      1.0000 0.19469  0.36605  0.36605  Biso   1.000  O
  O11      1.0000 0.36605  0.19469  0.36605  Biso   1.000  O
  O12      1.0000 0.36605  0.07321  0.36605  Biso   1.000  O
  O13      1.0000 0.07321  0.36605  0.19469  Biso   1.000  O
  O14      1.0000 0.19469  0.36605  0.07321  Biso   1.000  O
  O15      1.0000 0.63395  0.63395  0.92679  Biso   1.000  O
  O16      1.0000 0.63395  0.63395  0.80531  Biso   1.000  O
  O17      1.0000 0.80531  0.92679  0.63395  Biso   1.000  O
  O18      1.0000 0.92679  0.80531  0.63395  Biso   1.000  O
  O19      1.0000 0.92679  0.63395  0.80531  Biso   1.000  O
  O20      1.0000 0.80531  0.63395  0.92679  Biso   1.000  O
  O21      1.0000 0.63395  0.92679  0.63395  Biso   1.000  O
  O22      1.0000 0.63395  0.80531  0.63395  Biso   1.000  O
  O23      1.0000 0.80531  0.63395  0.63395  Biso   1.000  O
  O24      1.0000 0.92679  0.63395  0.63395  Biso   1.000  O
  O25      1.0000 0.63395  0.92679  0.80531  Biso   1.000  O
  O26      1.0000 0.63395  0.80531  0.92679  Biso   1.000  O
  Zn9      1.0000 0.00000  0.00000  0.00000  Biso   1.000  Zn
  Zn10     1.0000 0.57436  0.41734  0.59096  Biso   1.000  Zn
  Zn11     1.0000 0.57436  0.59110  0.59096  Biso   1.000  Zn
  Zn12     1.0000 0.00000  0.17376  0.00000  Biso   1.000  Zn
  Zn13     1.0000 0.99996  0.99992  0.17396  Biso   1.000  Zn
  Zn14     1.0000 0.17353  0.00018  0.99987  Biso   1.000  Zn
  Zn15     1.0000 0.57440  0.59118  0.41700  Biso   1.000  Zn
  Zn16     1.0000 0.40082  0.59092  0.59109  Biso   1.000  Zn
  H25      1.0000 0.82722  0.84318  0.36541  Biso   1.000  H
  H26      1.0000 0.82627  0.84473  0.13648  Biso   1.000  H
  H27      1.0000 0.82338  0.13653  0.84557  Biso   1.000  H
  H28      1.0000 0.74713  0.45316  0.22555  Biso   1.000  H
  H29      1.0000 0.74808  0.22482  0.45448  Biso   1.000  H
  H30      1.0000 0.75098  0.22282  0.74539  Biso   1.000  H
  H31      1.0000 0.74713  0.74792  0.22555  Biso   1.000  H
  H32      1.0000 0.74808  0.74638  0.45448  Biso   1.000  H
  H33      1.0000 0.75097  0.45457  0.74539  Biso   1.000  H
  H34      1.0000 0.82722  0.13794  0.36541  Biso   1.000  H
  H35      1.0000 0.82627  0.36628  0.13648  Biso   1.000  H
  H36      1.0000 0.82338  0.36828  0.84557  Biso   1.000  H
  C49      1.0000 0.91273  0.91177  0.17843  Biso   1.000  C
  C50      1.0000 0.84866  0.84720  0.23775  Biso   1.000  C
  C51      1.0000 0.81155  0.82176  0.33903  Biso   1.000  C
  C52      1.0000 0.81160  0.82320  0.19976  Biso   1.000  C
  C53      1.0000 0.17445  0.91238  0.91252  Biso   1.000  C
  C54      1.0000 0.80999  0.19971  0.82186  Biso   1.000  C
  C55      1.0000 0.66163  0.42028  0.41253  Biso   1.000  C
  C56      1.0000 0.72569  0.35095  0.35321  Biso   1.000  C
  C57      1.0000 0.76280  0.38968  0.25193  Biso   1.000  C
  C58      1.0000 0.76276  0.25190  0.39120  Biso   1.000  C
  C59      1.0000 0.39990  0.41669  0.67844  Biso   1.000  C
  C60      1.0000 0.76437  0.24890  0.76910  Biso   1.000  C
  C61      1.0000 0.66163  0.67933  0.41253  Biso   1.000  C
  C62      1.0000 0.72569  0.74390  0.35321  Biso   1.000  C
  C63      1.0000 0.76281  0.76934  0.25193  Biso   1.000  C
  C64      1.0000 0.76276  0.76790  0.39120  Biso   1.000  C
  C65      1.0000 0.39990  0.67872  0.67844  Biso   1.000  C
  C66      1.0000 0.76437  0.39140  0.76910  Biso   1.000  C
  C67      1.0000 0.91273  0.17083  0.17843  Biso   1.000  C
  C68      1.0000 0.84866  0.24015  0.23775  Biso   1.000  C
  C69      1.0000 0.81155  0.20142  0.33903  Biso   1.000  C
  C70      1.0000 0.81160  0.33920  0.19976  Biso   1.000  C
  C71      1.0000 0.17445  0.17441  0.91252  Biso   1.000  C
  C72      1.0000 0.80999  0.34220  0.82186  Biso   1.000  C
  C73      1.0000 0.17248  0.91147  0.17833  Biso   1.000  C
  C74      1.0000 0.90935  0.17550  0.91341  Biso   1.000  C
  C75      1.0000 0.84845  0.24037  0.84458  Biso   1.000  C
  C76      1.0000 0.40187  0.67963  0.41263  Biso   1.000  C
  C77      1.0000 0.66501  0.41560  0.67755  Biso   1.000  C
  C78      1.0000 0.72591  0.35073  0.74638  Biso   1.000  C
  O27      1.0000 0.93019  0.92803  0.22227  Biso   1.000  O
  O28      1.0000 0.92820  0.92725  0.09571  Biso   1.000  O
  O29      1.0000 0.22365  0.92785  0.92879  Biso   1.000  O
  O30      1.0000 0.09342  0.92765  0.92869  Biso   1.000  O
  O31      1.0000 0.92898  0.09398  0.92710  Biso   1.000  O
  O32      1.0000 0.64417  0.49784  0.36869  Biso   1.000  O
  O33      1.0000 0.64616  0.36850  0.49525  Biso   1.000  O
  O34      1.0000 0.35071  0.49762  0.66218  Biso   1.000  O
  O35      1.0000 0.48093  0.36710  0.66227  Biso   1.000  O
  O36      1.0000 0.64537  0.36740  0.66386  Biso   1.000  O
  O37      1.0000 0.64417  0.66307  0.36869  Biso   1.000  O
  O38      1.0000 0.64616  0.66386  0.49525  Biso   1.000  O
  O39      1.0000 0.35071  0.66325  0.66218  Biso   1.000  O
  O40      1.0000 0.48093  0.66345  0.66227  Biso   1.000  O
  O41      1.0000 0.64537  0.49713  0.66386  Biso   1.000  O
  O42      1.0000 0.93019  0.09327  0.22227  Biso   1.000  O
  O43      1.0000 0.92820  0.22260  0.09571  Biso   1.000  O
  O44      1.0000 0.22365  0.09348  0.92879  Biso   1.000  O
  O45      1.0000 0.09342  0.22400  0.92869  Biso   1.000  O
  O46      1.0000 0.92898  0.22370  0.92710  Biso   1.000  O
  O47      1.0000 0.04196  0.04478  0.04225  Biso   1.000  O
  O48      1.0000 0.09374  0.92813  0.22376  Biso   1.000  O
  O49      1.0000 0.22336  0.92824  0.09393  Biso   1.000  O
  O50      1.0000 0.53240  0.54633  0.54871  Biso   1.000  O
  O51      1.0000 0.48062  0.66297  0.36720  Biso   1.000  O
