data_image0
_cell_length_a       18.2344
_cell_length_b       18.2344
_cell_length_c       18.2344
_cell_angle_alpha    60
_cell_angle_beta     60
_cell_angle_gamma    60

_symmetry_space_group_name_H-M    "P 1"
_symmetry_int_tables_number       1

loop_
  _symmetry_equiv_pos_as_xyz
  'x, y, z'

loop_
  _atom_site_label
  _atom_site_occupancy
  _atom_site_fract_x
  _atom_site_fract_y
  _atom_site_fract_z
  _atom_site_thermal_displace_type
  _atom_site_B_iso_or_equiv
  _atom_site_type_symbol
  C1       1.0000 0.29357  0.29359  0.11925  Biso   1.000  C
  C2       1.0000 0.29358  0.29358  0.29359  Biso   1.000  C
  C3       1.0000 0.11924  0.29359  0.29358  Biso   1.000  C
  C4       1.0000 0.29358  0.11925  0.29359  Biso   1.000  C
  C5       1.0000 0.70642  0.70642  0.88075  Biso   1.000  C
  C6       1.0000 0.70641  0.70642  0.70642  Biso   1.000  C
  C7       1.0000 0.70642  0.88075  0.70642  Biso   1.000  C
  C8       1.0000 0.88075  0.70642  0.70641  Biso   1.000  C
  C9       1.0000 0.45590  0.45590  0.93650  Biso   1.000  C
  C10      1.0000 0.45590  0.45590  0.15170  Biso   1.000  C
  C11      1.0000 0.93650  0.15170  0.45590  Biso   1.000  C
  C12      1.0000 0.15170  0.93650  0.45590  Biso   1.000  C
  C13      1.0000 0.45590  0.93650  0.15170  Biso   1.000  C
  C14      1.0000 0.45590  0.15170  0.93650  Biso   1.000  C
  C15      1.0000 0.93650  0.45590  0.45590  Biso   1.000  C
  C16      1.0000 0.15170  0.45590  0.45590  Biso   1.000  C
  C17      1.0000 0.45590  0.15170  0.45590  Biso   1.000  C
  C18      1.0000 0.45590  0.93650  0.45590  Biso   1.000  C
  C19      1.0000 0.93650  0.45590  0.15170  Biso   1.000  C
  C20      1.0000 0.15170  0.45590  0.93650  Biso   1.000  C
  C21      1.0000 0.54410  0.54410  0.06350  Biso   1.000  C
  C22      1.0000 0.54410  0.54410  0.84830  Biso   1.000  C
  C23      1.0000 0.84830  0.06350  0.54410  Biso   1.000  C
  C24      1.0000 0.06350  0.84830  0.54410  Biso   1.000  C
  C25      1.0000 0.06350  0.54410  0.84830  Biso   1.000  C
  C26      1.0000 0.84830  0.54410  0.06350  Biso   1.000  C
  C27      1.0000 0.54410  0.06350  0.54410  Biso   1.000  C
  C28      1.0000 0.54410  0.84830  0.54410  Biso   1.000  C
  C29      1.0000 0.84830  0.54410  0.54410  Biso   1.000  C
  C30      1.0000 0.06350  0.54410  0.54410  Biso   1.000  C
  C31      1.0000 0.54410  0.06350  0.84830  Biso   1.000  C
  C32      1.0000 0.54410  0.84830  0.06350  Biso   1.000  C
  C33      1.0000 0.47360  0.47360  0.96326  Biso   1.000  C
  C34      1.0000 0.47360  0.47360  0.08954  Biso   1.000  C
  C35      1.0000 0.96326  0.08954  0.47360  Biso   1.000  C
  C36      1.0000 0.08954  0.96326  0.47360  Biso   1.000  C
  C37      1.0000 0.47360  0.96326  0.08954  Biso   1.000  C
  C38      1.0000 0.47360  0.08954  0.96326  Biso   1.000  C
  C39      1.0000 0.96326  0.47360  0.47360  Biso   1.000  C
  C40      1.0000 0.08954  0.47360  0.47360  Biso   1.000  C
  C41      1.0000 0.47360  0.08954  0.47360  Biso   1.000  C
  C42      1.0000 0.47360  0.96326  0.47360  Biso   1.000  C
  C43      1.0000 0.96326  0.47360  0.08954  Biso   1.000  C
  C44      1.0000 0.08954  0.47360  0.96326  Biso   1.000  C
  C45      1.0000 0.52640  0.52640  0.03674  Biso   1.000  C
  C46      1.0000 0.52640  0.52640  0.91046  Biso   1.000  C
  C47      1.0000 0.91046  0.03674  0.52640  Biso   1.000  C
  C48      1.0000 0.03674  0.91046  0.52640  Biso   1.000  C
  C49      1.0000 0.03674  0.52640  0.91046  Biso   1.000  C
  C50      1.0000 0.91046  0.52640  0.03674  Biso   1.000  C
  C51      1.0000 0.52640  0.03674  0.52640  Biso   1.000  C
  C52      1.0000 0.52640  0.91046  0.52640  Biso   1.000  C
  C53      1.0000 0.91046  0.52640  0.52640  Biso   1.000  C
  C54      1.0000 0.03674  0.52640  0.52640  Biso   1.000  C
  C55      1.0000 0.52640  0.03674  0.91046  Biso   1.000  C
  C56      1.0000 0.52640  0.91046  0.03674  Biso   1.000  C
  C57      1.0000 0.38860  0.38860  0.11140  Biso   1.000  C
  C58      1.0000 0.44640  0.44640  0.05360  Biso   1.000  C
  C59      1.0000 0.11140  0.11140  0.38860  Biso   1.000  C
  C60      1.0000 0.05360  0.05360  0.44640  Biso   1.000  C
  C61      1.0000 0.38860  0.11140  0.11140  Biso   1.000  C
  C62      1.0000 0.44640  0.05360  0.05360  Biso   1.000  C
  C63      1.0000 0.11140  0.38860  0.38860  Biso   1.000  C
  C64      1.0000 0.05360  0.44640  0.44640  Biso   1.000  C
  C65      1.0000 0.38860  0.11140  0.38860  Biso   1.000  C
  C66      1.0000 0.44640  0.05360  0.44640  Biso   1.000  C
  C67      1.0000 0.11140  0.38860  0.11140  Biso   1.000  C
  C68      1.0000 0.05360  0.44640  0.05360  Biso   1.000  C
  C69      1.0000 0.61140  0.61140  0.88860  Biso   1.000  C
  C70      1.0000 0.55360  0.55360  0.94640  Biso   1.000  C
  C71      1.0000 0.88860  0.88860  0.61140  Biso   1.000  C
  C72      1.0000 0.94640  0.94640  0.55360  Biso   1.000  C
  C73      1.0000 0.88860  0.61140  0.88860  Biso   1.000  C
  C74      1.0000 0.94640  0.55360  0.94640  Biso   1.000  C
  C75      1.0000 0.61140  0.88860  0.61140  Biso   1.000  C
  C76      1.0000 0.55360  0.94640  0.55360  Biso   1.000  C
  C77      1.0000 0.88860  0.61140  0.61140  Biso   1.000  C
  C78      1.0000 0.94640  0.55360  0.55360  Biso   1.000  C
  C79      1.0000 0.61140  0.88860  0.88860  Biso   1.000  C
  C80      1.0000 0.55360  0.94640  0.94640  Biso   1.000  C
  C81      1.0000 0.25000  0.25000  0.25000  Biso   1.000  C
  C82      1.0000 0.75000  0.75000  0.75000  Biso   1.000  C
  C83      1.0000 0.36604  0.36604  0.07340  Biso   1.000  C
  C84      1.0000 0.36604  0.36604  0.19452  Biso   1.000  C
  C85      1.0000 0.07340  0.19452  0.36604  Biso   1.000  C
  C86      1.0000 0.19452  0.07340  0.36604  Biso   1.000  C
  C87      1.0000 0.36604  0.07340  0.19452  Biso   1.000  C
  C88      1.0000 0.36604  0.19452  0.07340  Biso   1.000  C
  C89      1.0000 0.07340  0.36604  0.36604  Biso   1.000  C
  C90      1.0000 0.19452  0.36604  0.36604  Biso   1.000  C
  C91      1.0000 0.36604  0.19452  0.36604  Biso   1.000  C
  C92      1.0000 0.36604  0.07340  0.36604  Biso   1.000  C
  C93      1.0000 0.07340  0.36604  0.19452  Biso   1.000  C
  C94      1.0000 0.19452  0.36604  0.07340  Biso   1.000  C
  C95      1.0000 0.63396  0.63396  0.92660  Biso   1.000  C
  C96      1.0000 0.63396  0.63396  0.80548  Biso   1.000  C
  C97      1.0000 0.80548  0.92660  0.63396  Biso   1.000  C
  C98      1.0000 0.92660  0.80548  0.63396  Biso   1.000  C
  C99      1.0000 0.92660  0.63396  0.80548  Biso   1.000  C
  C100     1.0000 0.80548  0.63396  0.92660  Biso   1.000  C
  C101     1.0000 0.63396  0.92660  0.63396  Biso   1.000  C
  C102     1.0000 0.63396  0.80548  0.63396  Biso   1.000  C
  C103     1.0000 0.80548  0.63396  0.63396  Biso   1.000  C
  C104     1.0000 0.92660  0.63396  0.63396  Biso   1.000  C
  C105     1.0000 0.63396  0.92660  0.80548  Biso   1.000  C
  C106     1.0000 0.63396  0.80548  0.92660  Biso   1.000  C
  O1       1.0000 0.00000  0.00000  0.00000  Biso   1.000  O
  O2       1.0000 0.57576  0.41682  0.59059  Biso   1.000  O
  O3       1.0000 0.57576  0.59074  0.59059  Biso   1.000  O
  O4       1.0000 0.00000  0.17392  0.00000  Biso   1.000  O
  O5       1.0000 0.99996  0.99992  0.17412  Biso   1.000  O
  O6       1.0000 0.17369  0.00018  0.99987  Biso   1.000  O
  O7       1.0000 0.57580  0.59082  0.41648  Biso   1.000  O
  O8       1.0000 0.40207  0.59056  0.59072  Biso   1.000  O
  O9       1.0000 0.82796  0.84304  0.36485  Biso   1.000  O
  O10      1.0000 0.82701  0.84459  0.13660  Biso   1.000  O
  O11      1.0000 0.82412  0.13665  0.84543  Biso   1.000  O
  O12      1.0000 0.74780  0.45267  0.22575  Biso   1.000  O
  O13      1.0000 0.74875  0.22502  0.45399  Biso   1.000  O
  O14      1.0000 0.75165  0.22302  0.74516  Biso   1.000  O
  O15      1.0000 0.74780  0.74770  0.22575  Biso   1.000  O
  O16      1.0000 0.74875  0.74615  0.45399  Biso   1.000  O
  O17      1.0000 0.75165  0.45409  0.74516  Biso   1.000  O
  O18      1.0000 0.82796  0.13807  0.36485  Biso   1.000  O
  O19      1.0000 0.82701  0.36572  0.13660  Biso   1.000  O
  O20      1.0000 0.82412  0.36772  0.84543  Biso   1.000  O
  O21      1.0000 0.91265  0.91169  0.17859  Biso   1.000  O
  O22      1.0000 0.84853  0.84706  0.23796  Biso   1.000  O
  O23      1.0000 0.81228  0.82160  0.33844  Biso   1.000  O
  O24      1.0000 0.81232  0.82304  0.19994  Biso   1.000  O
  O25      1.0000 0.17461  0.91230  0.91244  Biso   1.000  O
  O26      1.0000 0.81072  0.19989  0.82170  Biso   1.000  O
  O27      1.0000 0.66311  0.41976  0.41200  Biso   1.000  O
  O28      1.0000 0.72723  0.35037  0.35264  Biso   1.000  O
  O29      1.0000 0.76349  0.38914  0.25216  Biso   1.000  O
  O30      1.0000 0.76344  0.25213  0.39066  Biso   1.000  O
  O31      1.0000 0.40116  0.41617  0.67815  Biso   1.000  O
  O32      1.0000 0.76505  0.24913  0.76889  Biso   1.000  O
  O33      1.0000 0.66311  0.67905  0.41200  Biso   1.000  O
  O34      1.0000 0.72724  0.74367  0.35264  Biso   1.000  O
  O35      1.0000 0.76349  0.76914  0.25216  Biso   1.000  O
  O36      1.0000 0.76344  0.76769  0.39066  Biso   1.000  O
  O37      1.0000 0.40116  0.67844  0.67815  Biso   1.000  O
  O38      1.0000 0.76505  0.39085  0.76889  Biso   1.000  O
  O39      1.0000 0.91265  0.17098  0.17859  Biso   1.000  O
  O40      1.0000 0.84853  0.24037  0.23796  Biso   1.000  O
  O41      1.0000 0.81228  0.20160  0.33844  Biso   1.000  O
  O42      1.0000 0.81232  0.33861  0.19994  Biso   1.000  O
  O43      1.0000 0.17461  0.17457  0.91244  Biso   1.000  O
  O44      1.0000 0.81071  0.34161  0.82170  Biso   1.000  O
  O45      1.0000 0.17264  0.91139  0.17849  Biso   1.000  O
  O46      1.0000 0.90926  0.17566  0.91333  Biso   1.000  O
  O47      1.0000 0.84831  0.24059  0.84444  Biso   1.000  O
  O48      1.0000 0.40313  0.67934  0.41210  Biso   1.000  O
  O49      1.0000 0.66650  0.41508  0.67726  Biso   1.000  O
  O50      1.0000 0.72745  0.35015  0.74616  Biso   1.000  O
  O51      1.0000 0.93013  0.92797  0.22247  Biso   1.000  O
  O52      1.0000 0.92813  0.92718  0.09580  Biso   1.000  O
  O53      1.0000 0.22385  0.92779  0.92872  Biso   1.000  O
  O54      1.0000 0.09351  0.92759  0.92862  Biso   1.000  O
  O55      1.0000 0.92892  0.09406  0.92703  Biso   1.000  O
  O56      1.0000 0.64564  0.49739  0.36812  Biso   1.000  O
  O57      1.0000 0.64763  0.36793  0.49480  Biso   1.000  O
  O58      1.0000 0.35192  0.49717  0.66187  Biso   1.000  O
  O59      1.0000 0.48226  0.36654  0.66197  Biso   1.000  O
  O60      1.0000 0.64684  0.36683  0.66356  Biso   1.000  O
  O61      1.0000 0.64564  0.66277  0.36812  Biso   1.000  O
  O62      1.0000 0.64763  0.66356  0.49480  Biso   1.000  O
  O63      1.0000 0.35192  0.66295  0.66187  Biso   1.000  O
  O64      1.0000 0.48226  0.66315  0.66197  Biso   1.000  O
  O65      1.0000 0.64684  0.49668  0.66356  Biso   1.000  O
  O66      1.0000 0.93013  0.09335  0.22247  Biso   1.000  O
  O67      1.0000 0.92814  0.22280  0.09580  Biso   1.000  O
  O68      1.0000 0.22385  0.09356  0.92872  Biso   1.000  O
  O69      1.0000 0.09351  0.22420  0.92862  Biso   1.000  O
  O70      1.0000 0.92892  0.22390  0.92703  Biso   1.000  O
  O71      1.0000 0.04199  0.04482  0.04229  Biso   1.000  O
  O72      1.0000 0.09382  0.92807  0.22396  Biso   1.000  O
  O73      1.0000 0.22356  0.92817  0.09401  Biso   1.000  O
  O74      1.0000 0.53377  0.54592  0.54830  Biso   1.000  O
  O75      1.0000 0.48194  0.66267  0.36663  Biso   1.000  O
