data_image0
_cell_length_a       18.3017
_cell_length_b       18.3017
_cell_length_c       18.3017
_cell_angle_alpha    60
_cell_angle_beta     60
_cell_angle_gamma    60

_symmetry_space_group_name_H-M    "P 1"
_symmetry_int_tables_number       1

loop_
  _symmetry_equiv_pos_as_xyz
  'x, y, z'

loop_
  _atom_site_label
  _atom_site_occupancy
  _atom_site_fract_x
  _atom_site_fract_y
  _atom_site_fract_z
  _atom_site_thermal_displace_type
  _atom_site_B_iso_or_equiv
  _atom_site_type_symbol
  Zn1      1.0000 0.29342  0.29343  0.11972  Biso   1.000  Zn
  Zn2      1.0000 0.29343  0.29342  0.29343  Biso   1.000  Zn
  Zn3      1.0000 0.11972  0.29343  0.29342  Biso   1.000  Zn
  Zn4      1.0000 0.29343  0.11972  0.29343  Biso   1.000  Zn
  Zn5      1.0000 0.70657  0.70658  0.88028  Biso   1.000  Zn
  Zn6      1.0000 0.70657  0.70658  0.70657  Biso   1.000  Zn
  Zn7      1.0000 0.70658  0.88028  0.70657  Biso   1.000  Zn
  Zn8      1.0000 0.88029  0.70657  0.70657  Biso   1.000  Zn
  H1       1.0000 0.45510  0.45510  0.93470  Biso   1.000  H
  H2       1.0000 0.45510  0.45510  0.15510  Biso   1.000  H
  H3       1.0000 0.93470  0.15510  0.45510  Biso   1.000  H
  H4       1.0000 0.15510  0.93470  0.45510  Biso   1.000  H
  H5       1.0000 0.45510  0.93470  0.15510  Biso   1.000  H
  H6       1.0000 0.45510  0.15510  0.93470  Biso   1.000  H
  H7       1.0000 0.93470  0.45510  0.45510  Biso   1.000  H
  H8       1.0000 0.15510  0.45510  0.45510  Biso   1.000  H
  H9       1.0000 0.45510  0.15510  0.45510  Biso   1.000  H
  H10      1.0000 0.45510  0.93470  0.45510  Biso   1.000  H
  H11      1.0000 0.93470  0.45510  0.15510  Biso   1.000  H
  H12      1.0000 0.15510  0.45510  0.93470  Biso   1.000  H
  H13      1.0000 0.54490  0.54490  0.06530  Biso   1.000  H
  H14      1.0000 0.54490  0.54490  0.84490  Biso   1.000  H
  H15      1.0000 0.84490  0.06530  0.54490  Biso   1.000  H
  H16      1.0000 0.06530  0.84490  0.54490  Biso   1.000  H
  H17      1.0000 0.06530  0.54490  0.84490  Biso   1.000  H
  H18      1.0000 0.84490  0.54490  0.06530  Biso   1.000  H
  H19      1.0000 0.54490  0.06530  0.54490  Biso   1.000  H
  H20      1.0000 0.54490  0.84490  0.54490  Biso   1.000  H
  H21      1.0000 0.84490  0.54490  0.54490  Biso   1.000  H
  H22      1.0000 0.06530  0.54490  0.54490  Biso   1.000  H
  H23      1.0000 0.54490  0.06530  0.84490  Biso   1.000  H
  H24      1.0000 0.54490  0.84490  0.06530  Biso   1.000  H
  C1       1.0000 0.47334  0.47334  0.96156  Biso   1.000  C
  C2       1.0000 0.47334  0.47334  0.09176  Biso   1.000  C
  C3       1.0000 0.96156  0.09176  0.47334  Biso   1.000  C
  C4       1.0000 0.09176  0.96156  0.47334  Biso   1.000  C
  C5       1.0000 0.47334  0.96156  0.09176  Biso   1.000  C
  C6       1.0000 0.47334  0.09176  0.96156  Biso   1.000  C
  C7       1.0000 0.96156  0.47334  0.47334  Biso   1.000  C
  C8       1.0000 0.09176  0.47334  0.47334  Biso   1.000  C
  C9       1.0000 0.47334  0.09176  0.47334  Biso   1.000  C
  C10      1.0000 0.47334  0.96156  0.47334  Biso   1.000  C
  C11      1.0000 0.96156  0.47334  0.09176  Biso   1.000  C
  C12      1.0000 0.09176  0.47334  0.96156  Biso   1.000  C
  C13      1.0000 0.52666  0.52666  0.03844  Biso   1.000  C
  C14      1.0000 0.52666  0.52666  0.90824  Biso   1.000  C
  C15      1.0000 0.90824  0.03844  0.52666  Biso   1.000  C
  C16      1.0000 0.03844  0.90824  0.52666  Biso   1.000  C
  C17      1.0000 0.03844  0.52666  0.90824  Biso   1.000  C
  C18      1.0000 0.90824  0.52666  0.03844  Biso   1.000  C
  C19      1.0000 0.52666  0.03844  0.52666  Biso   1.000  C
  C20      1.0000 0.52666  0.90824  0.52666  Biso   1.000  C
  C21      1.0000 0.90824  0.52666  0.52666  Biso   1.000  C
  C22      1.0000 0.03844  0.52666  0.52666  Biso   1.000  C
  C23      1.0000 0.52666  0.03844  0.90824  Biso   1.000  C
  C24      1.0000 0.52666  0.90824  0.03844  Biso   1.000  C
  C25      1.0000 0.38843  0.38843  0.11157  Biso   1.000  C
  C26      1.0000 0.44642  0.44642  0.05358  Biso   1.000  C
  C27      1.0000 0.11157  0.11157  0.38843  Biso   1.000  C
  C28      1.0000 0.05358  0.05358  0.44642  Biso   1.000  C
  C29      1.0000 0.38843  0.11157  0.11157  Biso   1.000  C
  C30      1.0000 0.44642  0.05358  0.05358  Biso   1.000  C
  C31      1.0000 0.11157  0.38843  0.38843  Biso   1.000  C
  C32      1.0000 0.05358  0.44642  0.44642  Biso   1.000  C
  C33      1.0000 0.38843  0.11157  0.38843  Biso   1.000  C
  C34      1.0000 0.44642  0.05358  0.44642  Biso   1.000  C
  C35      1.0000 0.11157  0.38843  0.11157  Biso   1.000  C
  C36      1.0000 0.05358  0.44642  0.05358  Biso   1.000  C
  C37      1.0000 0.61157  0.61157  0.88843  Biso   1.000  C
  C38      1.0000 0.55358  0.55358  0.94642  Biso   1.000  C
  C39      1.0000 0.88843  0.88843  0.61157  Biso   1.000  C
  C40      1.0000 0.94642  0.94642  0.55358  Biso   1.000  C
  C41      1.0000 0.88843  0.61157  0.88843  Biso   1.000  C
  C42      1.0000 0.94642  0.55358  0.94642  Biso   1.000  C
  C43      1.0000 0.61157  0.88843  0.61157  Biso   1.000  C
  C44      1.0000 0.55358  0.94642  0.55358  Biso   1.000  C
  C45      1.0000 0.88843  0.61157  0.61157  Biso   1.000  C
  C46      1.0000 0.94642  0.55358  0.55358  Biso   1.000  C
  C47      1.0000 0.61157  0.88843  0.88843  Biso   1.000  C
  C48      1.0000 0.55358  0.94642  0.94642  Biso   1.000  C
  O1       1.0000 0.25000  0.25000  0.25000  Biso   1.000  O
  O2       1.0000 0.75000  0.75000  0.75000  Biso   1.000  O
  O3       1.0000 0.36609  0.36609  0.07295  Biso   1.000  O
  O4       1.0000 0.36609  0.36609  0.19487  Biso   1.000  O
  O5       1.0000 0.07295  0.19487  0.36609  Biso   1.000  O
  O6       1.0000 0.19487  0.07295  0.36609  Biso   1.000  O
  O7       1.0000 0.36609  0.07295  0.19487  Biso   1.000  O
  O8       1.0000 0.36609  0.19487  0.07295  Biso   1.000  O
  O9       1.0000 0.07295  0.36609  0.36609  Biso   1.000  O
  O10      1.0000 0.19487  0.36609  0.36609  Biso   1.000  O
  O11      1.0000 0.36609  0.19487  0.36609  Biso   1.000  O
  O12      1.0000 0.36609  0.07295  0.36609  Biso   1.000  O
  O13      1.0000 0.07295  0.36609  0.19487  Biso   1.000  O
  O14      1.0000 0.19487  0.36609  0.07295  Biso   1.000  O
  O15      1.0000 0.63391  0.63391  0.92705  Biso   1.000  O
  O16      1.0000 0.63391  0.63391  0.80513  Biso   1.000  O
  O17      1.0000 0.80513  0.92705  0.63391  Biso   1.000  O
  O18      1.0000 0.92705  0.80513  0.63391  Biso   1.000  O
  O19      1.0000 0.92705  0.63391  0.80513  Biso   1.000  O
  O20      1.0000 0.80513  0.63391  0.92705  Biso   1.000  O
  O21      1.0000 0.63391  0.92705  0.63391  Biso   1.000  O
  O22      1.0000 0.63391  0.80513  0.63391  Biso   1.000  O
  O23      1.0000 0.80513  0.63391  0.63391  Biso   1.000  O
  O24      1.0000 0.92705  0.63391  0.63391  Biso   1.000  O
  O25      1.0000 0.63391  0.92705  0.80513  Biso   1.000  O
  O26      1.0000 0.63391  0.80513  0.92705  Biso   1.000  O
  Zn9      1.0000 0.99148  0.97187  0.86996  Biso   1.000  Zn
  Zn10     1.0000 0.99153  0.14372  0.86991  Biso   1.000  Zn
  Zn11     1.0000 0.16338  0.97187  0.86996  Biso   1.000  Zn
  Zn12     1.0000 0.99153  0.97182  0.04181  Biso   1.000  Zn
  Zn13     1.0000 0.57334  0.56191  0.46001  Biso   1.000  Zn
  Zn14     1.0000 0.57330  0.39005  0.46006  Biso   1.000  Zn
  Zn15     1.0000 0.40144  0.56191  0.46001  Biso   1.000  Zn
  Zn16     1.0000 0.57329  0.56195  0.28815  Biso   1.000  Zn
  C49      1.0000 0.81254  0.17110  0.69197  Biso   1.000  C
  C50      1.0000 0.19098  0.79366  0.68997  Biso   1.000  C
  C51      1.0000 0.81194  0.79466  0.06920  Biso   1.000  C
  C52      1.0000 0.81355  0.30970  0.69097  Biso   1.000  C
  C53      1.0000 0.81156  0.31070  0.06940  Biso   1.000  C
  C54      1.0000 0.19079  0.30951  0.69037  Biso   1.000  C
  C55      1.0000 0.32108  0.79387  0.06919  Biso   1.000  C
  C56      1.0000 0.32208  0.79188  0.69176  Biso   1.000  C
  C57      1.0000 0.32088  0.17111  0.69275  Biso   1.000  C
  C58      1.0000 0.18247  0.79287  0.20780  Biso   1.000  C
  C59      1.0000 0.80503  0.17130  0.20880  Biso   1.000  C
  C60      1.0000 0.80603  0.79227  0.20761  Biso   1.000  C
  C61      1.0000 0.75228  0.36267  0.63800  Biso   1.000  C
  C62      1.0000 0.37385  0.74011  0.63999  Biso   1.000  C
  C63      1.0000 0.75288  0.73911  0.26076  Biso   1.000  C
  C64      1.0000 0.75127  0.22408  0.63899  Biso   1.000  C
  C65      1.0000 0.75327  0.22307  0.26056  Biso   1.000  C
  C66      1.0000 0.37404  0.22426  0.63959  Biso   1.000  C
  C67      1.0000 0.24375  0.73990  0.26077  Biso   1.000  C
  C68      1.0000 0.24274  0.74189  0.63821  Biso   1.000  C
  C69      1.0000 0.24394  0.36266  0.63721  Biso   1.000  C
  C70      1.0000 0.38235  0.74090  0.12217  Biso   1.000  C
  C71      1.0000 0.75979  0.36247  0.12116  Biso   1.000  C
  C72      1.0000 0.75879  0.74150  0.12235  Biso   1.000  C
  C73      1.0000 0.83990  0.20939  0.71834  Biso   1.000  C
  C74      1.0000 0.89810  0.15120  0.77653  Biso   1.000  C
  C75      1.0000 0.22906  0.82024  0.10748  Biso   1.000  C
  C76      1.0000 0.17086  0.87844  0.04929  Biso   1.000  C
  C77      1.0000 0.72492  0.32438  0.61163  Biso   1.000  C
  C78      1.0000 0.66673  0.38258  0.55343  Biso   1.000  C
  C79      1.0000 0.33577  0.71353  0.22248  Biso   1.000  C
  C80      1.0000 0.39396  0.65533  0.28068  Biso   1.000  C
  C81      1.0000 0.83971  0.82005  0.10768  Biso   1.000  C
  C82      1.0000 0.89763  0.87796  0.04976  Biso   1.000  C
  C83      1.0000 0.22925  0.20959  0.71814  Biso   1.000  C
  C84      1.0000 0.17133  0.15167  0.77605  Biso   1.000  C
  C85      1.0000 0.72511  0.71373  0.22229  Biso   1.000  C
  C86      1.0000 0.66720  0.65581  0.28020  Biso   1.000  C
  C87      1.0000 0.33558  0.32418  0.61183  Biso   1.000  C
  C88      1.0000 0.39349  0.38210  0.55391  Biso   1.000  C
  C89      1.0000 0.22945  0.81984  0.71794  Biso   1.000  C
  C90      1.0000 0.17154  0.87776  0.77585  Biso   1.000  C
  C91      1.0000 0.83951  0.20979  0.10788  Biso   1.000  C
  C92      1.0000 0.89742  0.15187  0.04996  Biso   1.000  C
  C93      1.0000 0.33537  0.71393  0.61202  Biso   1.000  C
  C94      1.0000 0.39329  0.65601  0.55411  Biso   1.000  C
  C95      1.0000 0.72532  0.32398  0.22209  Biso   1.000  C
  C96      1.0000 0.66740  0.38190  0.28000  Biso   1.000  C
  O27      1.0000 0.92051  0.06765  0.79735  Biso   1.000  O
  O28      1.0000 0.91859  0.90085  0.96658  Biso   1.000  O
  O29      1.0000 0.08690  0.90049  0.79777  Biso   1.000  O
  O30      1.0000 0.91892  0.19150  0.79894  Biso   1.000  O
  O31      1.0000 0.08815  0.19100  0.79702  Biso   1.000  O
  O32      1.0000 0.91934  0.19186  0.96533  Biso   1.000  O
  O33      1.0000 0.21116  0.89926  0.96575  Biso   1.000  O
  O34      1.0000 0.21066  0.06849  0.79894  Biso   1.000  O
  O35      1.0000 0.21152  0.89968  0.79858  Biso   1.000  O
  O36      1.0000 0.08732  0.90085  0.08959  Biso   1.000  O
  O37      1.0000 0.92051  0.89893  0.08909  Biso   1.000  O
  O38      1.0000 0.92015  0.06724  0.08995  Biso   1.000  O
  O39      1.0000 0.64431  0.46612  0.53261  Biso   1.000  O
  O40      1.0000 0.64623  0.63292  0.36338  Biso   1.000  O
  O41      1.0000 0.47792  0.63328  0.53219  Biso   1.000  O
  O42      1.0000 0.64590  0.34227  0.53102  Biso   1.000  O
  O43      1.0000 0.47668  0.34277  0.53295  Biso   1.000  O
  O44      1.0000 0.64548  0.34191  0.36463  Biso   1.000  O
  O45      1.0000 0.35366  0.63451  0.36422  Biso   1.000  O
  O46      1.0000 0.35416  0.46528  0.53102  Biso   1.000  O
  O47      1.0000 0.35330  0.63409  0.53138  Biso   1.000  O
  O48      1.0000 0.47750  0.63292  0.24037  Biso   1.000  O
  O49      1.0000 0.64431  0.63485  0.24087  Biso   1.000  O
  O50      1.0000 0.64467  0.46653  0.24002  Biso   1.000  O
  O51      1.0000 0.03448  0.01482  0.91291  Biso   1.000  O
  O52      1.0000 0.53034  0.51895  0.41706  Biso   1.000  O
  H25      1.0000 0.11501  0.81642  0.71126  Biso   1.000  H
  H26      1.0000 0.35399  0.81317  0.71452  Biso   1.000  H
  H27      1.0000 0.44981  0.71735  0.61870  Biso   1.000  H
  H28      1.0000 0.21083  0.72060  0.61545  Biso   1.000  H
  H29      1.0000 0.35280  0.09515  0.71576  Biso   1.000  H
  H30      1.0000 0.44999  0.19235  0.61856  Biso   1.000  H
  H31      1.0000 0.83298  0.81766  0.99324  Biso   1.000  H
  H32      1.0000 0.73578  0.72047  0.09044  Biso   1.000  H
  H33      1.0000 0.83598  0.34162  0.71258  Biso   1.000  H
  H34      1.0000 0.83285  0.34261  0.99343  Biso   1.000  H
  H35      1.0000 0.45831  0.71929  0.09024  Biso   1.000  H
  H36      1.0000 0.73703  0.43843  0.08925  Biso   1.000  H
  H37      1.0000 0.11483  0.34142  0.71140  Biso   1.000  H
  H38      1.0000 0.21203  0.43862  0.61421  Biso   1.000  H
  H39      1.0000 0.82904  0.81330  0.23952  Biso   1.000  H
  H40      1.0000 0.73184  0.71611  0.33672  Biso   1.000  H
  H41      1.0000 0.21182  0.71747  0.33674  Biso   1.000  H
  H42      1.0000 0.82779  0.09534  0.24071  Biso   1.000  H
  H43      1.0000 0.73197  0.19116  0.33653  Biso   1.000  H
  H44      1.0000 0.10651  0.81448  0.23972  Biso   1.000  H
  H45      1.0000 0.72884  0.19215  0.61738  Biso   1.000  H
  H46      1.0000 0.83415  0.09513  0.71440  Biso   1.000  H
  H47      1.0000 0.73067  0.43864  0.61556  Biso   1.000  H
