data_image0
_cell_length_a       18.2789
_cell_length_b       18.2789
_cell_length_c       18.2789
_cell_angle_alpha    60
_cell_angle_beta     60
_cell_angle_gamma    60

_symmetry_space_group_name_H-M    "P 1"
_symmetry_int_tables_number       1

loop_
  _symmetry_equiv_pos_as_xyz
  'x, y, z'

loop_
  _atom_site_label
  _atom_site_occupancy
  _atom_site_fract_x
  _atom_site_fract_y
  _atom_site_fract_z
  _atom_site_thermal_displace_type
  _atom_site_B_iso_or_equiv
  _atom_site_type_symbol
  C1       1.0000 0.29348  0.29347  0.11958  Biso   1.000  C
  C2       1.0000 0.29348  0.29347  0.29347  Biso   1.000  C
  C3       1.0000 0.11959  0.29347  0.29347  Biso   1.000  C
  C4       1.0000 0.29348  0.11958  0.29347  Biso   1.000  C
  C5       1.0000 0.70652  0.70653  0.88042  Biso   1.000  C
  C6       1.0000 0.70652  0.70653  0.70653  Biso   1.000  C
  C7       1.0000 0.70652  0.88042  0.70653  Biso   1.000  C
  C8       1.0000 0.88041  0.70653  0.70653  Biso   1.000  C
  C9       1.0000 0.45520  0.45520  0.93520  Biso   1.000  C
  C10      1.0000 0.45520  0.45520  0.15440  Biso   1.000  C
  C11      1.0000 0.93520  0.15440  0.45520  Biso   1.000  C
  C12      1.0000 0.15440  0.93520  0.45520  Biso   1.000  C
  C13      1.0000 0.45520  0.93520  0.15440  Biso   1.000  C
  C14      1.0000 0.45520  0.15440  0.93520  Biso   1.000  C
  C15      1.0000 0.93520  0.45520  0.45520  Biso   1.000  C
  C16      1.0000 0.15440  0.45520  0.45520  Biso   1.000  C
  C17      1.0000 0.45520  0.15440  0.45520  Biso   1.000  C
  C18      1.0000 0.45520  0.93520  0.45520  Biso   1.000  C
  C19      1.0000 0.93520  0.45520  0.15440  Biso   1.000  C
  C20      1.0000 0.15440  0.45520  0.93520  Biso   1.000  C
  C21      1.0000 0.54480  0.54480  0.06480  Biso   1.000  C
  C22      1.0000 0.54480  0.54480  0.84560  Biso   1.000  C
  C23      1.0000 0.84560  0.06480  0.54480  Biso   1.000  C
  C24      1.0000 0.06480  0.84560  0.54480  Biso   1.000  C
  C25      1.0000 0.06480  0.54480  0.84560  Biso   1.000  C
  C26      1.0000 0.84560  0.54480  0.06480  Biso   1.000  C
  C27      1.0000 0.54480  0.06480  0.54480  Biso   1.000  C
  C28      1.0000 0.54480  0.84560  0.54480  Biso   1.000  C
  C29      1.0000 0.84560  0.54480  0.54480  Biso   1.000  C
  C30      1.0000 0.06480  0.54480  0.54480  Biso   1.000  C
  C31      1.0000 0.54480  0.06480  0.84560  Biso   1.000  C
  C32      1.0000 0.54480  0.84560  0.06480  Biso   1.000  C
  C33      1.0000 0.47338  0.47338  0.96214  Biso   1.000  C
  C34      1.0000 0.47338  0.47338  0.09110  Biso   1.000  C
  C35      1.0000 0.96214  0.09110  0.47338  Biso   1.000  C
  C36      1.0000 0.09110  0.96214  0.47338  Biso   1.000  C
  C37      1.0000 0.47338  0.96214  0.09110  Biso   1.000  C
  C38      1.0000 0.47338  0.09110  0.96214  Biso   1.000  C
  C39      1.0000 0.96214  0.47338  0.47338  Biso   1.000  C
  C40      1.0000 0.09110  0.47338  0.47338  Biso   1.000  C
  C41      1.0000 0.47338  0.09110  0.47338  Biso   1.000  C
  C42      1.0000 0.47338  0.96214  0.47338  Biso   1.000  C
  C43      1.0000 0.96214  0.47338  0.09110  Biso   1.000  C
  C44      1.0000 0.09110  0.47338  0.96214  Biso   1.000  C
  C45      1.0000 0.52662  0.52662  0.03786  Biso   1.000  C
  C46      1.0000 0.52662  0.52662  0.90890  Biso   1.000  C
  C47      1.0000 0.90890  0.03786  0.52662  Biso   1.000  C
  C48      1.0000 0.03786  0.90890  0.52662  Biso   1.000  C
  C49      1.0000 0.03786  0.52662  0.90890  Biso   1.000  C
  C50      1.0000 0.90890  0.52662  0.03786  Biso   1.000  C
  C51      1.0000 0.52662  0.03786  0.52662  Biso   1.000  C
  C52      1.0000 0.52662  0.90890  0.52662  Biso   1.000  C
  C53      1.0000 0.90890  0.52662  0.52662  Biso   1.000  C
  C54      1.0000 0.03786  0.52662  0.52662  Biso   1.000  C
  C55      1.0000 0.52662  0.03786  0.90890  Biso   1.000  C
  C56      1.0000 0.52662  0.90890  0.03786  Biso   1.000  C
  C57      1.0000 0.38853  0.38853  0.11147  Biso   1.000  C
  C58      1.0000 0.44615  0.44615  0.05385  Biso   1.000  C
  C59      1.0000 0.11147  0.11147  0.38853  Biso   1.000  C
  C60      1.0000 0.05385  0.05385  0.44615  Biso   1.000  C
  C61      1.0000 0.38853  0.11147  0.11147  Biso   1.000  C
  C62      1.0000 0.44615  0.05385  0.05385  Biso   1.000  C
  C63      1.0000 0.11147  0.38853  0.38853  Biso   1.000  C
  C64      1.0000 0.05385  0.44615  0.44615  Biso   1.000  C
  C65      1.0000 0.38853  0.11147  0.38853  Biso   1.000  C
  C66      1.0000 0.44615  0.05385  0.44615  Biso   1.000  C
  C67      1.0000 0.11147  0.38853  0.11147  Biso   1.000  C
  C68      1.0000 0.05385  0.44615  0.05385  Biso   1.000  C
  C69      1.0000 0.61147  0.61147  0.88853  Biso   1.000  C
  C70      1.0000 0.55385  0.55385  0.94615  Biso   1.000  C
  C71      1.0000 0.88853  0.88853  0.61147  Biso   1.000  C
  C72      1.0000 0.94615  0.94615  0.55385  Biso   1.000  C
  C73      1.0000 0.88853  0.61147  0.88853  Biso   1.000  C
  C74      1.0000 0.94615  0.55385  0.94615  Biso   1.000  C
  C75      1.0000 0.61147  0.88853  0.61147  Biso   1.000  C
  C76      1.0000 0.55385  0.94615  0.55385  Biso   1.000  C
  C77      1.0000 0.88853  0.61147  0.61147  Biso   1.000  C
  C78      1.0000 0.94615  0.55385  0.55385  Biso   1.000  C
  C79      1.0000 0.61147  0.88853  0.88853  Biso   1.000  C
  C80      1.0000 0.55385  0.94615  0.94615  Biso   1.000  C
  C81      1.0000 0.25000  0.25000  0.25000  Biso   1.000  C
  C82      1.0000 0.75000  0.75000  0.75000  Biso   1.000  C
  C83      1.0000 0.36624  0.36624  0.07286  Biso   1.000  C
  C84      1.0000 0.36624  0.36624  0.19466  Biso   1.000  C
  C85      1.0000 0.07286  0.19466  0.36624  Biso   1.000  C
  C86      1.0000 0.19466  0.07286  0.36624  Biso   1.000  C
  C87      1.0000 0.36624  0.07286  0.19466  Biso   1.000  C
  C88      1.0000 0.36624  0.19466  0.07286  Biso   1.000  C
  C89      1.0000 0.07286  0.36624  0.36624  Biso   1.000  C
  C90      1.0000 0.19466  0.36624  0.36624  Biso   1.000  C
  C91      1.0000 0.36624  0.19466  0.36624  Biso   1.000  C
  C92      1.0000 0.36624  0.07286  0.36624  Biso   1.000  C
  C93      1.0000 0.07286  0.36624  0.19466  Biso   1.000  C
  C94      1.0000 0.19466  0.36624  0.07286  Biso   1.000  C
  C95      1.0000 0.63376  0.63376  0.92714  Biso   1.000  C
  C96      1.0000 0.63376  0.63376  0.80534  Biso   1.000  C
  C97      1.0000 0.80534  0.92714  0.63376  Biso   1.000  C
  C98      1.0000 0.92714  0.80534  0.63376  Biso   1.000  C
  C99      1.0000 0.92714  0.63376  0.80534  Biso   1.000  C
  C100     1.0000 0.80534  0.63376  0.92714  Biso   1.000  C
  C101     1.0000 0.63376  0.92714  0.63376  Biso   1.000  C
  C102     1.0000 0.63376  0.80534  0.63376  Biso   1.000  C
  C103     1.0000 0.80534  0.63376  0.63376  Biso   1.000  C
  C104     1.0000 0.92714  0.63376  0.63376  Biso   1.000  C
  C105     1.0000 0.63376  0.92714  0.80534  Biso   1.000  C
  C106     1.0000 0.63376  0.80534  0.92714  Biso   1.000  C
  O1       1.0000 0.00550  0.83973  0.13401  Biso   1.000  O
  O2       1.0000 0.00550  0.01352  0.13401  Biso   1.000  O
  O3       1.0000 0.83171  0.01352  0.13401  Biso   1.000  O
  O4       1.0000 0.00550  0.01352  0.96022  Biso   1.000  O
  O5       1.0000 0.41894  0.42651  0.54699  Biso   1.000  O
  O6       1.0000 0.41894  0.60029  0.54699  Biso   1.000  O
  O7       1.0000 0.59273  0.42651  0.54699  Biso   1.000  O
  O8       1.0000 0.41894  0.42651  0.72078  Biso   1.000  O
  O9       1.0000 0.86743  0.65460  0.29560  Biso   1.000  O
  O10      1.0000 0.16710  0.17511  0.99594  Biso   1.000  O
  O11      1.0000 0.64658  0.87545  0.29560  Biso   1.000  O
  O12      1.0000 0.16710  0.17511  0.77509  Biso   1.000  O
  O13      1.0000 0.64658  0.17511  0.99594  Biso   1.000  O
  O14      1.0000 0.16710  0.87545  0.29560  Biso   1.000  O
  O15      1.0000 0.86743  0.17511  0.77509  Biso   1.000  O
  O16      1.0000 0.16710  0.65460  0.29560  Biso   1.000  O
  O17      1.0000 0.16710  0.87545  0.77509  Biso   1.000  O
  O18      1.0000 0.86743  0.17511  0.29560  Biso   1.000  O
  O19      1.0000 0.16710  0.65460  0.99594  Biso   1.000  O
  O20      1.0000 0.64658  0.17511  0.29560  Biso   1.000  O
  O21      1.0000 0.55701  0.26491  0.38540  Biso   1.000  O
  O22      1.0000 0.25734  0.78543  0.68507  Biso   1.000  O
  O23      1.0000 0.77786  0.26491  0.38540  Biso   1.000  O
  O24      1.0000 0.25734  0.56458  0.90592  Biso   1.000  O
  O25      1.0000 0.77786  0.26491  0.68507  Biso   1.000  O
  O26      1.0000 0.25734  0.78543  0.38540  Biso   1.000  O
  O27      1.0000 0.55701  0.26491  0.90592  Biso   1.000  O
  O28      1.0000 0.25734  0.56458  0.38540  Biso   1.000  O
  O29      1.0000 0.25734  0.26491  0.90592  Biso   1.000  O
  O30      1.0000 0.55701  0.78543  0.38540  Biso   1.000  O
  O31      1.0000 0.25734  0.26491  0.68507  Biso   1.000  O
  O32      1.0000 0.77786  0.56458  0.38540  Biso   1.000  O
  O33      1.0000 0.80406  0.68136  0.31391  Biso   1.000  O
  O34      1.0000 0.18540  0.19342  0.93256  Biso   1.000  O
  O35      1.0000 0.67335  0.81207  0.31391  Biso   1.000  O
  O36      1.0000 0.18540  0.19342  0.80185  Biso   1.000  O
  O37      1.0000 0.67335  0.19342  0.93256  Biso   1.000  O
  O38      1.0000 0.18540  0.81207  0.31391  Biso   1.000  O
  O39      1.0000 0.80406  0.19342  0.80185  Biso   1.000  O
  O40      1.0000 0.18540  0.68136  0.31391  Biso   1.000  O
  O41      1.0000 0.18540  0.81207  0.80185  Biso   1.000  O
  O42      1.0000 0.80406  0.19342  0.31391  Biso   1.000  O
  O43      1.0000 0.18540  0.68136  0.93256  Biso   1.000  O
  O44      1.0000 0.67335  0.19342  0.31391  Biso   1.000  O
  O45      1.0000 0.62039  0.24661  0.36709  Biso   1.000  O
  O46      1.0000 0.23904  0.75866  0.74844  Biso   1.000  O
  O47      1.0000 0.75110  0.24661  0.36709  Biso   1.000  O
  O48      1.0000 0.23904  0.62795  0.87915  Biso   1.000  O
  O49      1.0000 0.75110  0.24661  0.74844  Biso   1.000  O
  O50      1.0000 0.23904  0.75866  0.36709  Biso   1.000  O
  O51      1.0000 0.62039  0.24661  0.87915  Biso   1.000  O
  O52      1.0000 0.23904  0.62795  0.36709  Biso   1.000  O
  O53      1.0000 0.23904  0.24661  0.87915  Biso   1.000  O
  O54      1.0000 0.62039  0.75866  0.36709  Biso   1.000  O
  O55      1.0000 0.23904  0.24661  0.74844  Biso   1.000  O
  O56      1.0000 0.75110  0.62795  0.36709  Biso   1.000  O
  O57      1.0000 0.82350  0.83152  0.22911  Biso   1.000  O
  O58      1.0000 0.76573  0.77374  0.28688  Biso   1.000  O
  O59      1.0000 0.10060  0.10862  0.95201  Biso   1.000  O
  O60      1.0000 0.15838  0.16639  0.89423  Biso   1.000  O
  O61      1.0000 0.82350  0.10862  0.95201  Biso   1.000  O
  O62      1.0000 0.76573  0.16639  0.89423  Biso   1.000  O
  O63      1.0000 0.10060  0.83152  0.22911  Biso   1.000  O
  O64      1.0000 0.15838  0.77374  0.28688  Biso   1.000  O
  O65      1.0000 0.10060  0.83152  0.95201  Biso   1.000  O
  O66      1.0000 0.15838  0.77374  0.89423  Biso   1.000  O
  O67      1.0000 0.82350  0.10862  0.22911  Biso   1.000  O
  O68      1.0000 0.76573  0.16639  0.28688  Biso   1.000  O
  O69      1.0000 0.60094  0.33140  0.45189  Biso   1.000  O
  O70      1.0000 0.65871  0.27363  0.39412  Biso   1.000  O
  O71      1.0000 0.32384  0.60851  0.72900  Biso   1.000  O
  O72      1.0000 0.26607  0.66628  0.78677  Biso   1.000  O
  O73      1.0000 0.60094  0.33140  0.72900  Biso   1.000  O
  O74      1.0000 0.65871  0.27363  0.78677  Biso   1.000  O
  O75      1.0000 0.32384  0.60851  0.45189  Biso   1.000  O
  O76      1.0000 0.26607  0.66628  0.39412  Biso   1.000  O
  O77      1.0000 0.32384  0.33140  0.72900  Biso   1.000  O
  O78      1.0000 0.26607  0.27363  0.78677  Biso   1.000  O
  O79      1.0000 0.60094  0.60851  0.45189  Biso   1.000  O
  O80      1.0000 0.65871  0.66628  0.39412  Biso   1.000  O
  O81      1.0000 0.96205  0.97007  0.09056  Biso   1.000  O
  O82      1.0000 0.46239  0.46996  0.59044  Biso   1.000  O
  O83      1.0000 0.90701  0.79252  0.20685  Biso   1.000  O
  O84      1.0000 0.07835  0.08636  0.03551  Biso   1.000  O
  O85      1.0000 0.78450  0.91503  0.20685  Biso   1.000  O
  O86      1.0000 0.07835  0.08636  0.91301  Biso   1.000  O
  O87      1.0000 0.78450  0.08636  0.03551  Biso   1.000  O
  O88      1.0000 0.07835  0.91503  0.20685  Biso   1.000  O
  O89      1.0000 0.90701  0.08636  0.91301  Biso   1.000  O
  O90      1.0000 0.07835  0.79252  0.20685  Biso   1.000  O
  O91      1.0000 0.07835  0.91503  0.91301  Biso   1.000  O
  O92      1.0000 0.90701  0.08636  0.20685  Biso   1.000  O
  O93      1.0000 0.07835  0.79252  0.03551  Biso   1.000  O
  O94      1.0000 0.78450  0.08636  0.20685  Biso   1.000  O
  O95      1.0000 0.51743  0.35366  0.47415  Biso   1.000  O
  O96      1.0000 0.34609  0.64751  0.64549  Biso   1.000  O
  O97      1.0000 0.63994  0.35366  0.47415  Biso   1.000  O
  O98      1.0000 0.34609  0.52500  0.76799  Biso   1.000  O
  O99      1.0000 0.63994  0.35366  0.64549  Biso   1.000  O
  O100     1.0000 0.34609  0.64751  0.47415  Biso   1.000  O
  O101     1.0000 0.51743  0.35366  0.76799  Biso   1.000  O
  O102     1.0000 0.34609  0.52500  0.47415  Biso   1.000  O
  O103     1.0000 0.34609  0.35366  0.76799  Biso   1.000  O
  O104     1.0000 0.51743  0.64751  0.47415  Biso   1.000  O
  O105     1.0000 0.34609  0.35366  0.64549  Biso   1.000  O
