data_image0
_cell_length_a       18.2507
_cell_length_b       18.2507
_cell_length_c       18.2507
_cell_angle_alpha    60
_cell_angle_beta     60
_cell_angle_gamma    60

_symmetry_space_group_name_H-M    "P 1"
_symmetry_int_tables_number       1

loop_
  _symmetry_equiv_pos_as_xyz
  'x, y, z'

loop_
  _atom_site_label
  _atom_site_occupancy
  _atom_site_fract_x
  _atom_site_fract_y
  _atom_site_fract_z
  _atom_site_thermal_displace_type
  _atom_site_B_iso_or_equiv
  _atom_site_type_symbol
  Zn1      1.0000 0.29354  0.29353  0.11940  Biso   1.000  Zn
  Zn2      1.0000 0.29354  0.29353  0.29353  Biso   1.000  Zn
  Zn3      1.0000 0.11941  0.29353  0.29353  Biso   1.000  Zn
  Zn4      1.0000 0.29354  0.11940  0.29353  Biso   1.000  Zn
  Zn5      1.0000 0.70646  0.70647  0.88060  Biso   1.000  Zn
  Zn6      1.0000 0.70646  0.70647  0.70647  Biso   1.000  Zn
  Zn7      1.0000 0.70646  0.88060  0.70647  Biso   1.000  Zn
  Zn8      1.0000 0.88059  0.70647  0.70647  Biso   1.000  Zn
  H1       1.0000 0.45580  0.45580  0.93620  Biso   1.000  H
  H2       1.0000 0.45580  0.45580  0.15220  Biso   1.000  H
  H3       1.0000 0.93620  0.15220  0.45580  Biso   1.000  H
  H4       1.0000 0.15220  0.93620  0.45580  Biso   1.000  H
  H5       1.0000 0.45580  0.93620  0.15220  Biso   1.000  H
  H6       1.0000 0.45580  0.15220  0.93620  Biso   1.000  H
  H7       1.0000 0.93620  0.45580  0.45580  Biso   1.000  H
  H8       1.0000 0.15220  0.45580  0.45580  Biso   1.000  H
  H9       1.0000 0.45580  0.15220  0.45580  Biso   1.000  H
  H10      1.0000 0.45580  0.93620  0.45580  Biso   1.000  H
  H11      1.0000 0.93620  0.45580  0.15220  Biso   1.000  H
  H12      1.0000 0.15220  0.45580  0.93620  Biso   1.000  H
  H13      1.0000 0.54420  0.54420  0.06380  Biso   1.000  H
  H14      1.0000 0.54420  0.54420  0.84780  Biso   1.000  H
  H15      1.0000 0.84780  0.06380  0.54420  Biso   1.000  H
  H16      1.0000 0.06380  0.84780  0.54420  Biso   1.000  H
  H17      1.0000 0.06380  0.54420  0.84780  Biso   1.000  H
  H18      1.0000 0.84780  0.54420  0.06380  Biso   1.000  H
  H19      1.0000 0.54420  0.06380  0.54420  Biso   1.000  H
  H20      1.0000 0.54420  0.84780  0.54420  Biso   1.000  H
  H21      1.0000 0.84780  0.54420  0.54420  Biso   1.000  H
  H22      1.0000 0.06380  0.54420  0.54420  Biso   1.000  H
  H23      1.0000 0.54420  0.06380  0.84780  Biso   1.000  H
  H24      1.0000 0.54420  0.84780  0.06380  Biso   1.000  H
  C1       1.0000 0.47349  0.47349  0.96297  Biso   1.000  C
  C2       1.0000 0.47349  0.47349  0.09005  Biso   1.000  C
  C3       1.0000 0.96297  0.09005  0.47349  Biso   1.000  C
  C4       1.0000 0.09005  0.96297  0.47349  Biso   1.000  C
  C5       1.0000 0.47349  0.96297  0.09005  Biso   1.000  C
  C6       1.0000 0.47349  0.09005  0.96297  Biso   1.000  C
  C7       1.0000 0.96297  0.47349  0.47349  Biso   1.000  C
  C8       1.0000 0.09005  0.47349  0.47349  Biso   1.000  C
  C9       1.0000 0.47349  0.09005  0.47349  Biso   1.000  C
  C10      1.0000 0.47349  0.96297  0.47349  Biso   1.000  C
  C11      1.0000 0.96297  0.47349  0.09005  Biso   1.000  C
  C12      1.0000 0.09005  0.47349  0.96297  Biso   1.000  C
  C13      1.0000 0.52651  0.52651  0.03703  Biso   1.000  C
  C14      1.0000 0.52651  0.52651  0.90995  Biso   1.000  C
  C15      1.0000 0.90995  0.03703  0.52651  Biso   1.000  C
  C16      1.0000 0.03703  0.90995  0.52651  Biso   1.000  C
  C17      1.0000 0.03703  0.52651  0.90995  Biso   1.000  C
  C18      1.0000 0.90995  0.52651  0.03703  Biso   1.000  C
  C19      1.0000 0.52651  0.03703  0.52651  Biso   1.000  C
  C20      1.0000 0.52651  0.90995  0.52651  Biso   1.000  C
  C21      1.0000 0.90995  0.52651  0.52651  Biso   1.000  C
  C22      1.0000 0.03703  0.52651  0.52651  Biso   1.000  C
  C23      1.0000 0.52651  0.03703  0.90995  Biso   1.000  C
  C24      1.0000 0.52651  0.90995  0.03703  Biso   1.000  C
  C25      1.0000 0.38859  0.38859  0.11141  Biso   1.000  C
  C26      1.0000 0.44630  0.44630  0.05370  Biso   1.000  C
  C27      1.0000 0.11141  0.11141  0.38859  Biso   1.000  C
  C28      1.0000 0.05370  0.05370  0.44630  Biso   1.000  C
  C29      1.0000 0.38859  0.11141  0.11141  Biso   1.000  C
  C30      1.0000 0.44630  0.05370  0.05370  Biso   1.000  C
  C31      1.0000 0.11141  0.38859  0.38859  Biso   1.000  C
  C32      1.0000 0.05370  0.44630  0.44630  Biso   1.000  C
  C33      1.0000 0.38859  0.11141  0.38859  Biso   1.000  C
  C34      1.0000 0.44630  0.05370  0.44630  Biso   1.000  C
  C35      1.0000 0.11141  0.38859  0.11141  Biso   1.000  C
  C36      1.0000 0.05370  0.44630  0.05370  Biso   1.000  C
  C37      1.0000 0.61141  0.61141  0.88859  Biso   1.000  C
  C38      1.0000 0.55370  0.55370  0.94630  Biso   1.000  C
  C39      1.0000 0.88859  0.88859  0.61141  Biso   1.000  C
  C40      1.0000 0.94630  0.94630  0.55370  Biso   1.000  C
  C41      1.0000 0.88859  0.61141  0.88859  Biso   1.000  C
  C42      1.0000 0.94630  0.55370  0.94630  Biso   1.000  C
  C43      1.0000 0.61141  0.88859  0.61141  Biso   1.000  C
  C44      1.0000 0.55370  0.94630  0.55370  Biso   1.000  C
  C45      1.0000 0.88859  0.61141  0.61141  Biso   1.000  C
  C46      1.0000 0.94630  0.55370  0.55370  Biso   1.000  C
  C47      1.0000 0.61141  0.88859  0.88859  Biso   1.000  C
  C48      1.0000 0.55370  0.94630  0.94630  Biso   1.000  C
  O1       1.0000 0.25000  0.25000  0.25000  Biso   1.000  O
  O2       1.0000 0.75000  0.75000  0.75000  Biso   1.000  O
  O3       1.0000 0.36605  0.36605  0.07321  Biso   1.000  O
  O4       1.0000 0.36605  0.36605  0.19469  Biso   1.000  O
  O5       1.0000 0.07321  0.19469  0.36605  Biso   1.000  O
  O6       1.0000 0.19469  0.07321  0.36605  Biso   1.000  O
  O7       1.0000 0.36605  0.07321  0.19469  Biso   1.000  O
  O8       1.0000 0.36605  0.19469  0.07321  Biso   1.000  O
  O9       1.0000 0.07321  0.36605  0.36605  Biso   1.000  O
  O10      1.0000 0.19469  0.36605  0.36605  Biso   1.000  O
  O11      1.0000 0.36605  0.19469  0.36605  Biso   1.000  O
  O12      1.0000 0.36605  0.07321  0.36605  Biso   1.000  O
  O13      1.0000 0.07321  0.36605  0.19469  Biso   1.000  O
  O14      1.0000 0.19469  0.36605  0.07321  Biso   1.000  O
  O15      1.0000 0.63395  0.63395  0.92679  Biso   1.000  O
  O16      1.0000 0.63395  0.63395  0.80531  Biso   1.000  O
  O17      1.0000 0.80531  0.92679  0.63395  Biso   1.000  O
  O18      1.0000 0.92679  0.80531  0.63395  Biso   1.000  O
  O19      1.0000 0.92679  0.63395  0.80531  Biso   1.000  O
  O20      1.0000 0.80531  0.63395  0.92679  Biso   1.000  O
  O21      1.0000 0.63395  0.92679  0.63395  Biso   1.000  O
  O22      1.0000 0.63395  0.80531  0.63395  Biso   1.000  O
  O23      1.0000 0.80531  0.63395  0.63395  Biso   1.000  O
  O24      1.0000 0.92679  0.63395  0.63395  Biso   1.000  O
  O25      1.0000 0.63395  0.92679  0.80531  Biso   1.000  O
  O26      1.0000 0.63395  0.80531  0.92679  Biso   1.000  O
  Zn9      1.0000 0.16438  0.00000  0.00000  Biso   1.000  Zn
  Zn10     1.0000 0.57651  0.58773  0.41241  Biso   1.000  Zn
  Zn11     1.0000 0.57651  0.41284  0.41241  Biso   1.000  Zn
  Zn12     1.0000 0.16438  0.82511  0.00000  Biso   1.000  Zn
  Zn13     1.0000 0.16392  0.00034  0.82489  Biso   1.000  Zn
  Zn14     1.0000 0.98909  0.00015  0.00010  Biso   1.000  Zn
  Zn15     1.0000 0.57697  0.41250  0.58752  Biso   1.000  Zn
  Zn16     1.0000 0.75180  0.41269  0.41231  Biso   1.000  Zn
  H25      1.0000 0.32742  0.64554  0.85642  Biso   1.000  H
  H26      1.0000 0.32117  0.86030  0.64470  Biso   1.000  H
  H27      1.0000 0.02351  0.64663  0.16016  Biso   1.000  H
  H28      1.0000 0.80606  0.85777  0.16246  Biso   1.000  H
  H29      1.0000 0.32823  0.85977  0.15766  Biso   1.000  H
  H30      1.0000 0.41347  0.25273  0.55598  Biso   1.000  H
  H31      1.0000 0.41972  0.24952  0.76771  Biso   1.000  H
  H32      1.0000 0.71738  0.25365  0.25225  Biso   1.000  H
  H33      1.0000 0.93483  0.24965  0.24995  Biso   1.000  H
  H34      1.0000 0.41266  0.76901  0.25475  Biso   1.000  H
  H35      1.0000 0.41347  0.76730  0.55598  Biso   1.000  H
  H36      1.0000 0.41972  0.55254  0.76771  Biso   1.000  H
  H37      1.0000 0.71738  0.76621  0.25225  Biso   1.000  H
  H38      1.0000 0.93483  0.55507  0.24995  Biso   1.000  H
  H39      1.0000 0.41266  0.55307  0.25475  Biso   1.000  H
  H40      1.0000 0.32742  0.16011  0.85642  Biso   1.000  H
  H41      1.0000 0.32117  0.16332  0.64470  Biso   1.000  H
  H42      1.0000 0.02351  0.15919  0.16016  Biso   1.000  H
  H43      1.0000 0.80606  0.16319  0.16246  Biso   1.000  H
  H44      1.0000 0.32823  0.64383  0.15766  Biso   1.000  H
  H45      1.0000 0.80695  0.16201  0.85852  Biso   1.000  H
  H46      1.0000 0.02085  0.16312  0.64239  Biso   1.000  H
  H47      1.0000 0.93394  0.25083  0.55388  Biso   1.000  H
  H48      1.0000 0.72004  0.24972  0.77001  Biso   1.000  H
  C49      1.0000 0.25867  0.81659  0.82002  Biso   1.000  C
  C50      1.0000 0.31827  0.75849  0.75881  Biso   1.000  C
  C51      1.0000 0.34522  0.67125  0.79421  Biso   1.000  C
  C52      1.0000 0.34057  0.79819  0.67070  Biso   1.000  C
  C53      1.0000 0.97957  0.81977  0.09715  Biso   1.000  C
  C54      1.0000 0.92547  0.76127  0.15246  Biso   1.000  C
  C55      1.0000 0.96131  0.67283  0.17816  Biso   1.000  C
  C56      1.0000 0.83376  0.79577  0.17996  Biso   1.000  C
  C57      1.0000 0.34413  0.79767  0.17776  Biso   1.000  C
  C58      1.0000 0.48221  0.31863  0.59239  Biso   1.000  C
  C59      1.0000 0.42261  0.25893  0.65360  Biso   1.000  C
  C60      1.0000 0.39567  0.23403  0.61819  Biso   1.000  C
  C61      1.0000 0.40032  0.23282  0.74171  Biso   1.000  C
  C62      1.0000 0.76132  0.31985  0.31525  Biso   1.000  C
  C63      1.0000 0.81542  0.26255  0.25995  Biso   1.000  C
  C64      1.0000 0.77958  0.23565  0.23424  Biso   1.000  C
  C65      1.0000 0.90712  0.23285  0.23244  Biso   1.000  C
  C66      1.0000 0.39675  0.74291  0.23464  Biso   1.000  C
  C67      1.0000 0.48222  0.59625  0.59239  Biso   1.000  C
  C68      1.0000 0.42261  0.65435  0.65360  Biso   1.000  C
  C69      1.0000 0.39567  0.74159  0.61819  Biso   1.000  C
  C70      1.0000 0.40032  0.61465  0.74171  Biso   1.000  C
  C71      1.0000 0.76132  0.59307  0.31525  Biso   1.000  C
  C72      1.0000 0.81542  0.65157  0.25995  Biso   1.000  C
  C73      1.0000 0.77958  0.74001  0.23424  Biso   1.000  C
  C74      1.0000 0.90713  0.61707  0.23244  Biso   1.000  C
  C75      1.0000 0.39676  0.61517  0.23464  Biso   1.000  C
  C76      1.0000 0.25868  0.09421  0.82002  Biso   1.000  C
  C77      1.0000 0.31828  0.15391  0.75881  Biso   1.000  C
  C78      1.0000 0.34521  0.17881  0.79421  Biso   1.000  C
  C79      1.0000 0.34057  0.18002  0.67070  Biso   1.000  C
  C80      1.0000 0.97957  0.09299  0.09715  Biso   1.000  C
  C81      1.0000 0.92547  0.15029  0.15246  Biso   1.000  C
  C82      1.0000 0.96131  0.17719  0.17816  Biso   1.000  C
  C83      1.0000 0.83377  0.17999  0.17996  Biso   1.000  C
  C84      1.0000 0.34414  0.66993  0.17776  Biso   1.000  C
  C85      1.0000 0.98626  0.09501  0.81322  Biso   1.000  C
  C86      1.0000 0.92405  0.15221  0.76101  Biso   1.000  C
  C87      1.0000 0.83415  0.17941  0.79651  Biso   1.000  C
  C88      1.0000 0.95875  0.18062  0.66950  Biso   1.000  C
  C89      1.0000 0.25719  0.82157  0.08915  Biso   1.000  C
  C90      1.0000 0.31719  0.75987  0.15256  Biso   1.000  C
  C91      1.0000 0.75463  0.31783  0.59919  Biso   1.000  C
  C92      1.0000 0.81684  0.26063  0.65140  Biso   1.000  C
  C93      1.0000 0.90674  0.23343  0.61589  Biso   1.000  C
  C94      1.0000 0.78214  0.23222  0.74291  Biso   1.000  C
  C95      1.0000 0.48370  0.59127  0.32325  Biso   1.000  C
  C96      1.0000 0.42370  0.65297  0.25985  Biso   1.000  C
  O27      1.0000 0.23857  0.90199  0.77411  Biso   1.000  O
  O28      1.0000 0.23988  0.77268  0.90423  Biso   1.000  O
  O29      1.0000 0.93967  0.90298  0.07065  Biso   1.000  O
  O30      1.0000 0.06587  0.77567  0.07465  Biso   1.000  O
  O31      1.0000 0.23809  0.90398  0.07185  Biso   1.000  O
  O32      1.0000 0.50232  0.33803  0.63829  Biso   1.000  O
  O33      1.0000 0.50101  0.34014  0.50818  Biso   1.000  O
  O34      1.0000 0.80122  0.33665  0.34176  Biso   1.000  O
  O35      1.0000 0.67501  0.33955  0.33776  Biso   1.000  O
  O36      1.0000 0.50280  0.63727  0.34056  Biso   1.000  O
  O37      1.0000 0.50232  0.51085  0.63829  Biso   1.000  O
  O38      1.0000 0.50101  0.64016  0.50818  Biso   1.000  O
  O39      1.0000 0.80122  0.50986  0.34176  Biso   1.000  O
  O40      1.0000 0.67502  0.63717  0.33776  Biso   1.000  O
  O41      1.0000 0.50280  0.50886  0.34056  Biso   1.000  O
  O42      1.0000 0.23857  0.07481  0.77411  Biso   1.000  O
  O43      1.0000 0.23988  0.07270  0.90423  Biso   1.000  O
  O44      1.0000 0.93967  0.07619  0.07065  Biso   1.000  O
  O45      1.0000 0.06587  0.07329  0.07465  Biso   1.000  O
  O46      1.0000 0.23808  0.77557  0.07185  Biso   1.000  O
  O47      1.0000 0.12117  0.95619  0.95593  Biso   1.000  O
  O48      1.0000 0.06706  0.07381  0.77481  Biso   1.000  O
  O49      1.0000 0.94106  0.07610  0.89623  Biso   1.000  O
  O50      1.0000 0.61972  0.45665  0.45647  Biso   1.000  O
  O51      1.0000 0.67383  0.33903  0.63759  Biso   1.000  O
