data_image0
_cell_length_a       18.2455
_cell_length_b       18.2455
_cell_length_c       18.2455
_cell_angle_alpha    60
_cell_angle_beta     60
_cell_angle_gamma    60

_symmetry_space_group_name_H-M    "P 1"
_symmetry_int_tables_number       1

loop_
  _symmetry_equiv_pos_as_xyz
  'x, y, z'

loop_
  _atom_site_label
  _atom_site_occupancy
  _atom_site_fract_x
  _atom_site_fract_y
  _atom_site_fract_z
  _atom_site_thermal_displace_type
  _atom_site_B_iso_or_equiv
  _atom_site_type_symbol
  C1       1.0000 0.29354  0.29354  0.11938  Biso   1.000  C
  C2       1.0000 0.29354  0.29354  0.29354  Biso   1.000  C
  C3       1.0000 0.11938  0.29354  0.29354  Biso   1.000  C
  C4       1.0000 0.29354  0.11938  0.29354  Biso   1.000  C
  C5       1.0000 0.70646  0.70646  0.88062  Biso   1.000  C
  C6       1.0000 0.70646  0.70646  0.70646  Biso   1.000  C
  C7       1.0000 0.70646  0.88062  0.70646  Biso   1.000  C
  C8       1.0000 0.88062  0.70646  0.70646  Biso   1.000  C
  C9       1.0000 0.45580  0.45580  0.93620  Biso   1.000  C
  C10      1.0000 0.45580  0.45580  0.15220  Biso   1.000  C
  C11      1.0000 0.93620  0.15220  0.45580  Biso   1.000  C
  C12      1.0000 0.15220  0.93620  0.45580  Biso   1.000  C
  C13      1.0000 0.45580  0.93620  0.15220  Biso   1.000  C
  C14      1.0000 0.45580  0.15220  0.93620  Biso   1.000  C
  C15      1.0000 0.93620  0.45580  0.45580  Biso   1.000  C
  C16      1.0000 0.15220  0.45580  0.45580  Biso   1.000  C
  C17      1.0000 0.45580  0.15220  0.45580  Biso   1.000  C
  C18      1.0000 0.45580  0.93620  0.45580  Biso   1.000  C
  C19      1.0000 0.93620  0.45580  0.15220  Biso   1.000  C
  C20      1.0000 0.15220  0.45580  0.93620  Biso   1.000  C
  C21      1.0000 0.54420  0.54420  0.06380  Biso   1.000  C
  C22      1.0000 0.54420  0.54420  0.84780  Biso   1.000  C
  C23      1.0000 0.84780  0.06380  0.54420  Biso   1.000  C
  C24      1.0000 0.06380  0.84780  0.54420  Biso   1.000  C
  C25      1.0000 0.06380  0.54420  0.84780  Biso   1.000  C
  C26      1.0000 0.84780  0.54420  0.06380  Biso   1.000  C
  C27      1.0000 0.54420  0.06380  0.54420  Biso   1.000  C
  C28      1.0000 0.54420  0.84780  0.54420  Biso   1.000  C
  C29      1.0000 0.84780  0.54420  0.54420  Biso   1.000  C
  C30      1.0000 0.06380  0.54420  0.54420  Biso   1.000  C
  C31      1.0000 0.54420  0.06380  0.84780  Biso   1.000  C
  C32      1.0000 0.54420  0.84780  0.06380  Biso   1.000  C
  C33      1.0000 0.47345  0.47345  0.96303  Biso   1.000  C
  C34      1.0000 0.47345  0.47345  0.09007  Biso   1.000  C
  C35      1.0000 0.96303  0.09007  0.47345  Biso   1.000  C
  C36      1.0000 0.09007  0.96303  0.47345  Biso   1.000  C
  C37      1.0000 0.47345  0.96303  0.09007  Biso   1.000  C
  C38      1.0000 0.47345  0.09007  0.96303  Biso   1.000  C
  C39      1.0000 0.96303  0.47345  0.47345  Biso   1.000  C
  C40      1.0000 0.09007  0.47345  0.47345  Biso   1.000  C
  C41      1.0000 0.47345  0.09007  0.47345  Biso   1.000  C
  C42      1.0000 0.47345  0.96303  0.47345  Biso   1.000  C
  C43      1.0000 0.96303  0.47345  0.09007  Biso   1.000  C
  C44      1.0000 0.09007  0.47345  0.96303  Biso   1.000  C
  C45      1.0000 0.52655  0.52655  0.03697  Biso   1.000  C
  C46      1.0000 0.52655  0.52655  0.90993  Biso   1.000  C
  C47      1.0000 0.90993  0.03697  0.52655  Biso   1.000  C
  C48      1.0000 0.03697  0.90993  0.52655  Biso   1.000  C
  C49      1.0000 0.03697  0.52655  0.90993  Biso   1.000  C
  C50      1.0000 0.90993  0.52655  0.03697  Biso   1.000  C
  C51      1.0000 0.52655  0.03697  0.52655  Biso   1.000  C
  C52      1.0000 0.52655  0.90993  0.52655  Biso   1.000  C
  C53      1.0000 0.90993  0.52655  0.52655  Biso   1.000  C
  C54      1.0000 0.03697  0.52655  0.52655  Biso   1.000  C
  C55      1.0000 0.52655  0.03697  0.90993  Biso   1.000  C
  C56      1.0000 0.52655  0.90993  0.03697  Biso   1.000  C
  C57      1.0000 0.38857  0.38857  0.11143  Biso   1.000  C
  C58      1.0000 0.44620  0.44620  0.05380  Biso   1.000  C
  C59      1.0000 0.11143  0.11143  0.38857  Biso   1.000  C
  C60      1.0000 0.05380  0.05380  0.44620  Biso   1.000  C
  C61      1.0000 0.38857  0.11143  0.11143  Biso   1.000  C
  C62      1.0000 0.44620  0.05380  0.05380  Biso   1.000  C
  C63      1.0000 0.11143  0.38857  0.38857  Biso   1.000  C
  C64      1.0000 0.05380  0.44620  0.44620  Biso   1.000  C
  C65      1.0000 0.38857  0.11143  0.38857  Biso   1.000  C
  C66      1.0000 0.44620  0.05380  0.44620  Biso   1.000  C
  C67      1.0000 0.11143  0.38857  0.11143  Biso   1.000  C
  C68      1.0000 0.05380  0.44620  0.05380  Biso   1.000  C
  C69      1.0000 0.61143  0.61143  0.88857  Biso   1.000  C
  C70      1.0000 0.55380  0.55380  0.94620  Biso   1.000  C
  C71      1.0000 0.88857  0.88857  0.61143  Biso   1.000  C
  C72      1.0000 0.94620  0.94620  0.55380  Biso   1.000  C
  C73      1.0000 0.88857  0.61143  0.88857  Biso   1.000  C
  C74      1.0000 0.94620  0.55380  0.94620  Biso   1.000  C
  C75      1.0000 0.61143  0.88857  0.61143  Biso   1.000  C
  C76      1.0000 0.55380  0.94620  0.55380  Biso   1.000  C
  C77      1.0000 0.88857  0.61143  0.61143  Biso   1.000  C
  C78      1.0000 0.94620  0.55380  0.55380  Biso   1.000  C
  C79      1.0000 0.61143  0.88857  0.88857  Biso   1.000  C
  C80      1.0000 0.55380  0.94620  0.94620  Biso   1.000  C
  C81      1.0000 0.25000  0.25000  0.25000  Biso   1.000  C
  C82      1.0000 0.75000  0.75000  0.75000  Biso   1.000  C
  C83      1.0000 0.36603  0.36603  0.07311  Biso   1.000  C
  C84      1.0000 0.36603  0.36603  0.19483  Biso   1.000  C
  C85      1.0000 0.07311  0.19483  0.36603  Biso   1.000  C
  C86      1.0000 0.19483  0.07311  0.36603  Biso   1.000  C
  C87      1.0000 0.36603  0.07311  0.19483  Biso   1.000  C
  C88      1.0000 0.36603  0.19483  0.07311  Biso   1.000  C
  C89      1.0000 0.07311  0.36603  0.36603  Biso   1.000  C
  C90      1.0000 0.19483  0.36603  0.36603  Biso   1.000  C
  C91      1.0000 0.36603  0.19483  0.36603  Biso   1.000  C
  C92      1.0000 0.36603  0.07311  0.36603  Biso   1.000  C
  C93      1.0000 0.07311  0.36603  0.19483  Biso   1.000  C
  C94      1.0000 0.19483  0.36603  0.07311  Biso   1.000  C
  C95      1.0000 0.63397  0.63397  0.92689  Biso   1.000  C
  C96      1.0000 0.63397  0.63397  0.80517  Biso   1.000  C
  C97      1.0000 0.80517  0.92689  0.63397  Biso   1.000  C
  C98      1.0000 0.92689  0.80517  0.63397  Biso   1.000  C
  C99      1.0000 0.92689  0.63397  0.80517  Biso   1.000  C
  C100     1.0000 0.80517  0.63397  0.92689  Biso   1.000  C
  C101     1.0000 0.63397  0.92689  0.63397  Biso   1.000  C
  C102     1.0000 0.63397  0.80517  0.63397  Biso   1.000  C
  C103     1.0000 0.80517  0.63397  0.63397  Biso   1.000  C
  C104     1.0000 0.92689  0.63397  0.63397  Biso   1.000  C
  C105     1.0000 0.63397  0.92689  0.80517  Biso   1.000  C
  C106     1.0000 0.63397  0.80517  0.92689  Biso   1.000  C
  O1       1.0000 0.47800  0.34583  0.67126  Biso   1.000  O
  O2       1.0000 0.65220  0.34583  0.49706  Biso   1.000  O
  O3       1.0000 0.47800  0.34583  0.49706  Biso   1.000  O
  O4       1.0000 0.47800  0.52003  0.49706  Biso   1.000  O
  O5       1.0000 0.06867  0.93174  0.90877  Biso   1.000  O
  O6       1.0000 0.89446  0.93175  0.08298  Biso   1.000  O
  O7       1.0000 0.06867  0.75755  0.08297  Biso   1.000  O
  O8       1.0000 0.06867  0.93175  0.08298  Biso   1.000  O
  O9       1.0000 0.61885  0.18400  0.85408  Biso   1.000  O
  O10      1.0000 0.83740  0.18400  0.63553  Biso   1.000  O
  O11      1.0000 0.31854  0.48431  0.33522  Biso   1.000  O
  O12      1.0000 0.31854  0.70286  0.33522  Biso   1.000  O
  O13      1.0000 0.31854  0.70286  0.63553  Biso   1.000  O
  O14      1.0000 0.31854  0.48431  0.85408  Biso   1.000  O
  O15      1.0000 0.61885  0.18400  0.33522  Biso   1.000  O
  O16      1.0000 0.83740  0.18400  0.33522  Biso   1.000  O
  O17      1.0000 0.83740  0.48431  0.33522  Biso   1.000  O
  O18      1.0000 0.61885  0.70286  0.33522  Biso   1.000  O
  O19      1.0000 0.31854  0.18400  0.63553  Biso   1.000  O
  O20      1.0000 0.31854  0.18400  0.85408  Biso   1.000  O
  O21      1.0000 0.92782  0.09358  0.72595  Biso   1.000  O
  O22      1.0000 0.70927  0.09358  0.94450  Biso   1.000  O
  O23      1.0000 0.22813  0.57472  0.24481  Biso   1.000  O
  O24      1.0000 0.22813  0.79327  0.24481  Biso   1.000  O
  O25      1.0000 0.22813  0.09358  0.94450  Biso   1.000  O
  O26      1.0000 0.22813  0.09358  0.72595  Biso   1.000  O
  O27      1.0000 0.92782  0.57472  0.24481  Biso   1.000  O
  O28      1.0000 0.70927  0.79327  0.24481  Biso   1.000  O
  O29      1.0000 0.70927  0.09358  0.24481  Biso   1.000  O
  O30      1.0000 0.92782  0.09358  0.24481  Biso   1.000  O
  O31      1.0000 0.22813  0.57472  0.94450  Biso   1.000  O
  O32      1.0000 0.22813  0.79327  0.72595  Biso   1.000  O
  O33      1.0000 0.68232  0.16571  0.82718  Biso   1.000  O
  O34      1.0000 0.81050  0.16571  0.69900  Biso   1.000  O
  O35      1.0000 0.30026  0.54778  0.31694  Biso   1.000  O
  O36      1.0000 0.30026  0.67595  0.31694  Biso   1.000  O
  O37      1.0000 0.30026  0.67595  0.69900  Biso   1.000  O
  O38      1.0000 0.30026  0.54778  0.82718  Biso   1.000  O
  O39      1.0000 0.68232  0.16571  0.31694  Biso   1.000  O
  O40      1.0000 0.81050  0.16571  0.31694  Biso   1.000  O
  O41      1.0000 0.81050  0.54778  0.31694  Biso   1.000  O
  O42      1.0000 0.68232  0.67595  0.31694  Biso   1.000  O
  O43      1.0000 0.30026  0.16571  0.69900  Biso   1.000  O
  O44      1.0000 0.30026  0.16571  0.82718  Biso   1.000  O
  O45      1.0000 0.86435  0.11186  0.75285  Biso   1.000  O
  O46      1.0000 0.73617  0.11186  0.88103  Biso   1.000  O
  O47      1.0000 0.24641  0.60162  0.26309  Biso   1.000  O
  O48      1.0000 0.24641  0.72980  0.26309  Biso   1.000  O
  O49      1.0000 0.24641  0.11186  0.88103  Biso   1.000  O
  O50      1.0000 0.24641  0.11186  0.75285  Biso   1.000  O
  O51      1.0000 0.86435  0.60162  0.26309  Biso   1.000  O
  O52      1.0000 0.73617  0.72980  0.26309  Biso   1.000  O
  O53      1.0000 0.73617  0.11186  0.26309  Biso   1.000  O
  O54      1.0000 0.86435  0.11187  0.26309  Biso   1.000  O
  O55      1.0000 0.24641  0.60162  0.88103  Biso   1.000  O
  O56      1.0000 0.24641  0.72980  0.75285  Biso   1.000  O
  O57      1.0000 0.66037  0.25056  0.67943  Biso   1.000  O
  O58      1.0000 0.71826  0.19268  0.73731  Biso   1.000  O
  O59      1.0000 0.38274  0.52820  0.40179  Biso   1.000  O
  O60      1.0000 0.32485  0.58609  0.34390  Biso   1.000  O
  O61      1.0000 0.38274  0.52820  0.67943  Biso   1.000  O
  O62      1.0000 0.32485  0.58609  0.73731  Biso   1.000  O
  O63      1.0000 0.66037  0.25056  0.40179  Biso   1.000  O
  O64      1.0000 0.71826  0.19268  0.34390  Biso   1.000  O
  O65      1.0000 0.66037  0.52820  0.40179  Biso   1.000  O
  O66      1.0000 0.71826  0.58609  0.34390  Biso   1.000  O
  O67      1.0000 0.38274  0.25056  0.67943  Biso   1.000  O
  O68      1.0000 0.32485  0.19268  0.73732  Biso   1.000  O
  O69      1.0000 0.88630  0.02701  0.90060  Biso   1.000  O
  O70      1.0000 0.82841  0.08490  0.84272  Biso   1.000  O
  O71      1.0000 0.16393  0.74938  0.17824  Biso   1.000  O
  O72      1.0000 0.22182  0.69149  0.23613  Biso   1.000  O
  O73      1.0000 0.16393  0.02701  0.90060  Biso   1.000  O
  O74      1.0000 0.22182  0.08490  0.84272  Biso   1.000  O
  O75      1.0000 0.88630  0.74938  0.17824  Biso   1.000  O
  O76      1.0000 0.82841  0.69149  0.23613  Biso   1.000  O
  O77      1.0000 0.88630  0.02701  0.17824  Biso   1.000  O
  O78      1.0000 0.82841  0.08490  0.23613  Biso   1.000  O
  O79      1.0000 0.16393  0.74938  0.90060  Biso   1.000  O
  O80      1.0000 0.22182  0.69149  0.84272  Biso   1.000  O
  O81      1.0000 0.52155  0.38938  0.54061  Biso   1.000  O
  O82      1.0000 0.02511  0.88820  0.03942  Biso   1.000  O
  O83      1.0000 0.57695  0.27291  0.71817  Biso   1.000  O
  O84      1.0000 0.69911  0.27291  0.59600  Biso   1.000  O
  O85      1.0000 0.40508  0.44477  0.42413  Biso   1.000  O
  O86      1.0000 0.40508  0.56694  0.42413  Biso   1.000  O
  O87      1.0000 0.40508  0.56694  0.59600  Biso   1.000  O
  O88      1.0000 0.40508  0.44477  0.71817  Biso   1.000  O
  O89      1.0000 0.57695  0.27291  0.42413  Biso   1.000  O
  O90      1.0000 0.69911  0.27291  0.42413  Biso   1.000  O
  O91      1.0000 0.69911  0.44477  0.42413  Biso   1.000  O
  O92      1.0000 0.57695  0.56694  0.42413  Biso   1.000  O
  O93      1.0000 0.40508  0.27291  0.59600  Biso   1.000  O
  O94      1.0000 0.40508  0.27291  0.71817  Biso   1.000  O
  O95      1.0000 0.96972  0.00467  0.86186  Biso   1.000  O
  O96      1.0000 0.84755  0.00467  0.98403  Biso   1.000  O
  O97      1.0000 0.14159  0.71063  0.15590  Biso   1.000  O
  O98      1.0000 0.14159  0.83280  0.15590  Biso   1.000  O
  O99      1.0000 0.14159  0.00467  0.98403  Biso   1.000  O
  O100     1.0000 0.14159  0.00467  0.86186  Biso   1.000  O
  O101     1.0000 0.96972  0.71063  0.15590  Biso   1.000  O
  O102     1.0000 0.84755  0.83280  0.15590  Biso   1.000  O
  O103     1.0000 0.84755  0.00467  0.15590  Biso   1.000  O
  O104     1.0000 0.96972  0.00467  0.15590  Biso   1.000  O
  O105     1.0000 0.14159  0.71063  0.98403  Biso   1.000  O
