data_image0
_cell_length_a       18.2344
_cell_length_b       18.2344
_cell_length_c       18.2344
_cell_angle_alpha    60
_cell_angle_beta     60
_cell_angle_gamma    60

_symmetry_space_group_name_H-M    "P 1"
_symmetry_int_tables_number       1

loop_
  _symmetry_equiv_pos_as_xyz
  'x, y, z'

loop_
  _atom_site_label
  _atom_site_occupancy
  _atom_site_fract_x
  _atom_site_fract_y
  _atom_site_fract_z
  _atom_site_thermal_displace_type
  _atom_site_B_iso_or_equiv
  _atom_site_type_symbol
  Zn1      1.0000 0.29357  0.29359  0.11925  Biso   1.000  Zn
  Zn2      1.0000 0.29358  0.29358  0.29359  Biso   1.000  Zn
  Zn3      1.0000 0.11924  0.29359  0.29358  Biso   1.000  Zn
  Zn4      1.0000 0.29358  0.11925  0.29359  Biso   1.000  Zn
  Zn5      1.0000 0.70642  0.70642  0.88075  Biso   1.000  Zn
  Zn6      1.0000 0.70641  0.70642  0.70642  Biso   1.000  Zn
  Zn7      1.0000 0.70642  0.88075  0.70642  Biso   1.000  Zn
  Zn8      1.0000 0.88075  0.70642  0.70641  Biso   1.000  Zn
  H1       1.0000 0.45590  0.45590  0.93650  Biso   1.000  H
  H2       1.0000 0.45590  0.45590  0.15170  Biso   1.000  H
  H3       1.0000 0.93650  0.15170  0.45590  Biso   1.000  H
  H4       1.0000 0.15170  0.93650  0.45590  Biso   1.000  H
  H5       1.0000 0.45590  0.93650  0.15170  Biso   1.000  H
  H6       1.0000 0.45590  0.15170  0.93650  Biso   1.000  H
  H7       1.0000 0.93650  0.45590  0.45590  Biso   1.000  H
  H8       1.0000 0.15170  0.45590  0.45590  Biso   1.000  H
  H9       1.0000 0.45590  0.15170  0.45590  Biso   1.000  H
  H10      1.0000 0.45590  0.93650  0.45590  Biso   1.000  H
  H11      1.0000 0.93650  0.45590  0.15170  Biso   1.000  H
  H12      1.0000 0.15170  0.45590  0.93650  Biso   1.000  H
  H13      1.0000 0.54410  0.54410  0.06350  Biso   1.000  H
  H14      1.0000 0.54410  0.54410  0.84830  Biso   1.000  H
  H15      1.0000 0.84830  0.06350  0.54410  Biso   1.000  H
  H16      1.0000 0.06350  0.84830  0.54410  Biso   1.000  H
  H17      1.0000 0.06350  0.54410  0.84830  Biso   1.000  H
  H18      1.0000 0.84830  0.54410  0.06350  Biso   1.000  H
  H19      1.0000 0.54410  0.06350  0.54410  Biso   1.000  H
  H20      1.0000 0.54410  0.84830  0.54410  Biso   1.000  H
  H21      1.0000 0.84830  0.54410  0.54410  Biso   1.000  H
  H22      1.0000 0.06350  0.54410  0.54410  Biso   1.000  H
  H23      1.0000 0.54410  0.06350  0.84830  Biso   1.000  H
  H24      1.0000 0.54410  0.84830  0.06350  Biso   1.000  H
  C1       1.0000 0.47360  0.47360  0.96326  Biso   1.000  C
  C2       1.0000 0.47360  0.47360  0.08954  Biso   1.000  C
  C3       1.0000 0.96326  0.08954  0.47360  Biso   1.000  C
  C4       1.0000 0.08954  0.96326  0.47360  Biso   1.000  C
  C5       1.0000 0.47360  0.96326  0.08954  Biso   1.000  C
  C6       1.0000 0.47360  0.08954  0.96326  Biso   1.000  C
  C7       1.0000 0.96326  0.47360  0.47360  Biso   1.000  C
  C8       1.0000 0.08954  0.47360  0.47360  Biso   1.000  C
  C9       1.0000 0.47360  0.08954  0.47360  Biso   1.000  C
  C10      1.0000 0.47360  0.96326  0.47360  Biso   1.000  C
  C11      1.0000 0.96326  0.47360  0.08954  Biso   1.000  C
  C12      1.0000 0.08954  0.47360  0.96326  Biso   1.000  C
  C13      1.0000 0.52640  0.52640  0.03674  Biso   1.000  C
  C14      1.0000 0.52640  0.52640  0.91046  Biso   1.000  C
  C15      1.0000 0.91046  0.03674  0.52640  Biso   1.000  C
  C16      1.0000 0.03674  0.91046  0.52640  Biso   1.000  C
  C17      1.0000 0.03674  0.52640  0.91046  Biso   1.000  C
  C18      1.0000 0.91046  0.52640  0.03674  Biso   1.000  C
  C19      1.0000 0.52640  0.03674  0.52640  Biso   1.000  C
  C20      1.0000 0.52640  0.91046  0.52640  Biso   1.000  C
  C21      1.0000 0.91046  0.52640  0.52640  Biso   1.000  C
  C22      1.0000 0.03674  0.52640  0.52640  Biso   1.000  C
  C23      1.0000 0.52640  0.03674  0.91046  Biso   1.000  C
  C24      1.0000 0.52640  0.91046  0.03674  Biso   1.000  C
  C25      1.0000 0.38860  0.38860  0.11140  Biso   1.000  C
  C26      1.0000 0.44640  0.44640  0.05360  Biso   1.000  C
  C27      1.0000 0.11140  0.11140  0.38860  Biso   1.000  C
  C28      1.0000 0.05360  0.05360  0.44640  Biso   1.000  C
  C29      1.0000 0.38860  0.11140  0.11140  Biso   1.000  C
  C30      1.0000 0.44640  0.05360  0.05360  Biso   1.000  C
  C31      1.0000 0.11140  0.38860  0.38860  Biso   1.000  C
  C32      1.0000 0.05360  0.44640  0.44640  Biso   1.000  C
  C33      1.0000 0.38860  0.11140  0.38860  Biso   1.000  C
  C34      1.0000 0.44640  0.05360  0.44640  Biso   1.000  C
  C35      1.0000 0.11140  0.38860  0.11140  Biso   1.000  C
  C36      1.0000 0.05360  0.44640  0.05360  Biso   1.000  C
  C37      1.0000 0.61140  0.61140  0.88860  Biso   1.000  C
  C38      1.0000 0.55360  0.55360  0.94640  Biso   1.000  C
  C39      1.0000 0.88860  0.88860  0.61140  Biso   1.000  C
  C40      1.0000 0.94640  0.94640  0.55360  Biso   1.000  C
  C41      1.0000 0.88860  0.61140  0.88860  Biso   1.000  C
  C42      1.0000 0.94640  0.55360  0.94640  Biso   1.000  C
  C43      1.0000 0.61140  0.88860  0.61140  Biso   1.000  C
  C44      1.0000 0.55360  0.94640  0.55360  Biso   1.000  C
  C45      1.0000 0.88860  0.61140  0.61140  Biso   1.000  C
  C46      1.0000 0.94640  0.55360  0.55360  Biso   1.000  C
  C47      1.0000 0.61140  0.88860  0.88860  Biso   1.000  C
  C48      1.0000 0.55360  0.94640  0.94640  Biso   1.000  C
  O1       1.0000 0.25000  0.25000  0.25000  Biso   1.000  O
  O2       1.0000 0.75000  0.75000  0.75000  Biso   1.000  O
  O3       1.0000 0.36604  0.36604  0.07340  Biso   1.000  O
  O4       1.0000 0.36604  0.36604  0.19452  Biso   1.000  O
  O5       1.0000 0.07340  0.19452  0.36604  Biso   1.000  O
  O6       1.0000 0.19452  0.07340  0.36604  Biso   1.000  O
  O7       1.0000 0.36604  0.07340  0.19452  Biso   1.000  O
  O8       1.0000 0.36604  0.19452  0.07340  Biso   1.000  O
  O9       1.0000 0.07340  0.36604  0.36604  Biso   1.000  O
  O10      1.0000 0.19452  0.36604  0.36604  Biso   1.000  O
  O11      1.0000 0.36604  0.19452  0.36604  Biso   1.000  O
  O12      1.0000 0.36604  0.07340  0.36604  Biso   1.000  O
  O13      1.0000 0.07340  0.36604  0.19452  Biso   1.000  O
  O14      1.0000 0.19452  0.36604  0.07340  Biso   1.000  O
  O15      1.0000 0.63396  0.63396  0.92660  Biso   1.000  O
  O16      1.0000 0.63396  0.63396  0.80548  Biso   1.000  O
  O17      1.0000 0.80548  0.92660  0.63396  Biso   1.000  O
  O18      1.0000 0.92660  0.80548  0.63396  Biso   1.000  O
  O19      1.0000 0.92660  0.63396  0.80548  Biso   1.000  O
  O20      1.0000 0.80548  0.63396  0.92660  Biso   1.000  O
  O21      1.0000 0.63396  0.92660  0.63396  Biso   1.000  O
  O22      1.0000 0.63396  0.80548  0.63396  Biso   1.000  O
  O23      1.0000 0.80548  0.63396  0.63396  Biso   1.000  O
  O24      1.0000 0.92660  0.63396  0.63396  Biso   1.000  O
  O25      1.0000 0.63396  0.92660  0.80548  Biso   1.000  O
  O26      1.0000 0.63396  0.80548  0.92660  Biso   1.000  O
  Zn9      1.0000 0.47829  0.34604  0.67167  Biso   1.000  Zn
  Zn10     1.0000 0.65260  0.34604  0.49736  Biso   1.000  Zn
  Zn11     1.0000 0.47829  0.34604  0.49736  Biso   1.000  Zn
  Zn12     1.0000 0.47829  0.52035  0.49736  Biso   1.000  Zn
  Zn13     1.0000 0.06430  0.93357  0.91059  Biso   1.000  Zn
  Zn14     1.0000 0.88999  0.93357  0.08489  Biso   1.000  Zn
  Zn15     1.0000 0.06430  0.75927  0.08489  Biso   1.000  Zn
  Zn16     1.0000 0.06430  0.93357  0.08489  Biso   1.000  Zn
  H25      1.0000 0.61963  0.18397  0.85446  Biso   1.000  H
  H26      1.0000 0.83463  0.18397  0.63946  Biso   1.000  H
  H27      1.0000 0.31546  0.48814  0.33529  Biso   1.000  H
  H28      1.0000 0.31546  0.70314  0.33529  Biso   1.000  H
  H29      1.0000 0.31546  0.70314  0.63946  Biso   1.000  H
  H30      1.0000 0.31546  0.48814  0.85446  Biso   1.000  H
  H31      1.0000 0.61963  0.18397  0.33529  Biso   1.000  H
  H32      1.0000 0.83463  0.18397  0.33529  Biso   1.000  H
  H33      1.0000 0.83463  0.48814  0.33529  Biso   1.000  H
  H34      1.0000 0.61963  0.70314  0.33529  Biso   1.000  H
  H35      1.0000 0.31546  0.18397  0.63946  Biso   1.000  H
  H36      1.0000 0.31546  0.18397  0.85446  Biso   1.000  H
  H37      1.0000 0.92296  0.09564  0.72779  Biso   1.000  H
  H38      1.0000 0.70796  0.09564  0.94279  Biso   1.000  H
  H39      1.0000 0.22713  0.57647  0.24696  Biso   1.000  H
  H40      1.0000 0.22713  0.79147  0.24696  Biso   1.000  H
  H41      1.0000 0.22713  0.09564  0.94279  Biso   1.000  H
  H42      1.0000 0.22713  0.09564  0.72779  Biso   1.000  H
  H43      1.0000 0.92296  0.57647  0.24696  Biso   1.000  H
  H44      1.0000 0.70796  0.79147  0.24696  Biso   1.000  H
  H45      1.0000 0.70796  0.09564  0.24696  Biso   1.000  H
  H46      1.0000 0.92296  0.09564  0.24696  Biso   1.000  H
  H47      1.0000 0.22713  0.57647  0.94279  Biso   1.000  H
  H48      1.0000 0.22713  0.79147  0.72779  Biso   1.000  H
  C49      1.0000 0.68188  0.16629  0.82758  Biso   1.000  C
  C50      1.0000 0.80775  0.16629  0.70171  Biso   1.000  C
  C51      1.0000 0.29778  0.55039  0.31761  Biso   1.000  C
  C52      1.0000 0.29778  0.67626  0.31761  Biso   1.000  C
  C53      1.0000 0.29778  0.67626  0.70171  Biso   1.000  C
  C54      1.0000 0.29778  0.55039  0.82758  Biso   1.000  C
  C55      1.0000 0.68188  0.16629  0.31761  Biso   1.000  C
  C56      1.0000 0.80775  0.16629  0.31761  Biso   1.000  C
  C57      1.0000 0.80775  0.55039  0.31761  Biso   1.000  C
  C58      1.0000 0.68188  0.67626  0.31761  Biso   1.000  C
  C59      1.0000 0.29778  0.16629  0.70171  Biso   1.000  C
  C60      1.0000 0.29778  0.16629  0.82758  Biso   1.000  C
  C61      1.0000 0.86071  0.11333  0.75467  Biso   1.000  C
  C62      1.0000 0.73484  0.11333  0.88054  Biso   1.000  C
  C63      1.0000 0.24482  0.60335  0.26465  Biso   1.000  C
  C64      1.0000 0.24482  0.72922  0.26465  Biso   1.000  C
  C65      1.0000 0.24482  0.11333  0.88054  Biso   1.000  C
  C66      1.0000 0.24482  0.11333  0.75467  Biso   1.000  C
  C67      1.0000 0.86071  0.60335  0.26465  Biso   1.000  C
  C68      1.0000 0.73484  0.72922  0.26465  Biso   1.000  C
  C69      1.0000 0.73484  0.11333  0.26465  Biso   1.000  C
  C70      1.0000 0.86071  0.11333  0.26465  Biso   1.000  C
  C71      1.0000 0.24482  0.60335  0.88054  Biso   1.000  C
  C72      1.0000 0.24482  0.72922  0.75467  Biso   1.000  C
  C73      1.0000 0.66026  0.25122  0.67933  Biso   1.000  C
  C74      1.0000 0.71832  0.19317  0.73739  Biso   1.000  C
  C75      1.0000 0.38347  0.52801  0.40254  Biso   1.000  C
  C76      1.0000 0.32542  0.58607  0.34449  Biso   1.000  C
  C77      1.0000 0.38347  0.52801  0.67933  Biso   1.000  C
  C78      1.0000 0.32542  0.58607  0.73739  Biso   1.000  C
  C79      1.0000 0.66026  0.25122  0.40254  Biso   1.000  C
  C80      1.0000 0.71832  0.19317  0.34449  Biso   1.000  C
  C81      1.0000 0.66026  0.52801  0.40254  Biso   1.000  C
  C82      1.0000 0.71832  0.58607  0.34449  Biso   1.000  C
  C83      1.0000 0.38347  0.25122  0.67933  Biso   1.000  C
  C84      1.0000 0.32542  0.19317  0.73739  Biso   1.000  C
  C85      1.0000 0.88233  0.02839  0.90292  Biso   1.000  C
  C86      1.0000 0.82428  0.08645  0.84487  Biso   1.000  C
  C87      1.0000 0.15912  0.75160  0.17971  Biso   1.000  C
  C88      1.0000 0.21718  0.69355  0.23777  Biso   1.000  C
  C89      1.0000 0.15912  0.02839  0.90292  Biso   1.000  C
  C90      1.0000 0.21718  0.08645  0.84487  Biso   1.000  C
  C91      1.0000 0.88233  0.75160  0.17971  Biso   1.000  C
  C92      1.0000 0.82428  0.69355  0.23777  Biso   1.000  C
  C93      1.0000 0.88233  0.02839  0.17971  Biso   1.000  C
  C94      1.0000 0.82428  0.08645  0.23777  Biso   1.000  C
  C95      1.0000 0.15912  0.75160  0.90292  Biso   1.000  C
  C96      1.0000 0.21718  0.69355  0.84487  Biso   1.000  C
  O27      1.0000 0.52187  0.38962  0.54094  Biso   1.000  O
  O28      1.0000 0.02073  0.89000  0.04132  Biso   1.000  O
  O29      1.0000 0.57752  0.27361  0.71729  Biso   1.000  O
  O30      1.0000 0.69822  0.27361  0.59658  Biso   1.000  O
  O31      1.0000 0.40587  0.44526  0.42494  Biso   1.000  O
  O32      1.0000 0.40587  0.56597  0.42494  Biso   1.000  O
  O33      1.0000 0.40587  0.56597  0.59658  Biso   1.000  O
  O34      1.0000 0.40587  0.44526  0.71729  Biso   1.000  O
  O35      1.0000 0.57752  0.27361  0.42494  Biso   1.000  O
  O36      1.0000 0.69822  0.27361  0.42494  Biso   1.000  O
  O37      1.0000 0.69822  0.44526  0.42494  Biso   1.000  O
  O38      1.0000 0.57752  0.56597  0.42494  Biso   1.000  O
  O39      1.0000 0.40587  0.27361  0.59658  Biso   1.000  O
  O40      1.0000 0.40587  0.27361  0.71729  Biso   1.000  O
  O41      1.0000 0.96508  0.00600  0.86496  Biso   1.000  O
  O42      1.0000 0.84437  0.00600  0.98567  Biso   1.000  O
  O43      1.0000 0.13673  0.71364  0.15732  Biso   1.000  O
  O44      1.0000 0.13673  0.83435  0.15732  Biso   1.000  O
  O45      1.0000 0.13673  0.00600  0.98567  Biso   1.000  O
  O46      1.0000 0.13673  0.00600  0.86496  Biso   1.000  O
  O47      1.0000 0.96508  0.71364  0.15732  Biso   1.000  O
  O48      1.0000 0.84437  0.83435  0.15732  Biso   1.000  O
  O49      1.0000 0.84437  0.00600  0.15732  Biso   1.000  O
  O50      1.0000 0.96508  0.00600  0.15732  Biso   1.000  O
  O51      1.0000 0.13673  0.71364  0.98567  Biso   1.000  O
