data_image0
_cell_length_a       18.2344
_cell_length_b       18.2344
_cell_length_c       18.2344
_cell_angle_alpha    60
_cell_angle_beta     60
_cell_angle_gamma    60

_symmetry_space_group_name_H-M    "P 1"
_symmetry_int_tables_number       1

loop_
  _symmetry_equiv_pos_as_xyz
  'x, y, z'

loop_
  _atom_site_label
  _atom_site_occupancy
  _atom_site_fract_x
  _atom_site_fract_y
  _atom_site_fract_z
  _atom_site_thermal_displace_type
  _atom_site_B_iso_or_equiv
  _atom_site_type_symbol
  C1       1.0000 0.29357  0.29359  0.11925  Biso   1.000  C
  C2       1.0000 0.29358  0.29358  0.29359  Biso   1.000  C
  C3       1.0000 0.11924  0.29359  0.29358  Biso   1.000  C
  C4       1.0000 0.29358  0.11925  0.29359  Biso   1.000  C
  C5       1.0000 0.70642  0.70642  0.88075  Biso   1.000  C
  C6       1.0000 0.70641  0.70642  0.70642  Biso   1.000  C
  C7       1.0000 0.70642  0.88075  0.70642  Biso   1.000  C
  C8       1.0000 0.88075  0.70642  0.70641  Biso   1.000  C
  C9       1.0000 0.45590  0.45590  0.93650  Biso   1.000  C
  C10      1.0000 0.45590  0.45590  0.15170  Biso   1.000  C
  C11      1.0000 0.93650  0.15170  0.45590  Biso   1.000  C
  C12      1.0000 0.15170  0.93650  0.45590  Biso   1.000  C
  C13      1.0000 0.45590  0.93650  0.15170  Biso   1.000  C
  C14      1.0000 0.45590  0.15170  0.93650  Biso   1.000  C
  C15      1.0000 0.93650  0.45590  0.45590  Biso   1.000  C
  C16      1.0000 0.15170  0.45590  0.45590  Biso   1.000  C
  C17      1.0000 0.45590  0.15170  0.45590  Biso   1.000  C
  C18      1.0000 0.45590  0.93650  0.45590  Biso   1.000  C
  C19      1.0000 0.93650  0.45590  0.15170  Biso   1.000  C
  C20      1.0000 0.15170  0.45590  0.93650  Biso   1.000  C
  C21      1.0000 0.54410  0.54410  0.06350  Biso   1.000  C
  C22      1.0000 0.54410  0.54410  0.84830  Biso   1.000  C
  C23      1.0000 0.84830  0.06350  0.54410  Biso   1.000  C
  C24      1.0000 0.06350  0.84830  0.54410  Biso   1.000  C
  C25      1.0000 0.06350  0.54410  0.84830  Biso   1.000  C
  C26      1.0000 0.84830  0.54410  0.06350  Biso   1.000  C
  C27      1.0000 0.54410  0.06350  0.54410  Biso   1.000  C
  C28      1.0000 0.54410  0.84830  0.54410  Biso   1.000  C
  C29      1.0000 0.84830  0.54410  0.54410  Biso   1.000  C
  C30      1.0000 0.06350  0.54410  0.54410  Biso   1.000  C
  C31      1.0000 0.54410  0.06350  0.84830  Biso   1.000  C
  C32      1.0000 0.54410  0.84830  0.06350  Biso   1.000  C
  C33      1.0000 0.47360  0.47360  0.96326  Biso   1.000  C
  C34      1.0000 0.47360  0.47360  0.08954  Biso   1.000  C
  C35      1.0000 0.96326  0.08954  0.47360  Biso   1.000  C
  C36      1.0000 0.08954  0.96326  0.47360  Biso   1.000  C
  C37      1.0000 0.47360  0.96326  0.08954  Biso   1.000  C
  C38      1.0000 0.47360  0.08954  0.96326  Biso   1.000  C
  C39      1.0000 0.96326  0.47360  0.47360  Biso   1.000  C
  C40      1.0000 0.08954  0.47360  0.47360  Biso   1.000  C
  C41      1.0000 0.47360  0.08954  0.47360  Biso   1.000  C
  C42      1.0000 0.47360  0.96326  0.47360  Biso   1.000  C
  C43      1.0000 0.96326  0.47360  0.08954  Biso   1.000  C
  C44      1.0000 0.08954  0.47360  0.96326  Biso   1.000  C
  C45      1.0000 0.52640  0.52640  0.03674  Biso   1.000  C
  C46      1.0000 0.52640  0.52640  0.91046  Biso   1.000  C
  C47      1.0000 0.91046  0.03674  0.52640  Biso   1.000  C
  C48      1.0000 0.03674  0.91046  0.52640  Biso   1.000  C
  C49      1.0000 0.03674  0.52640  0.91046  Biso   1.000  C
  C50      1.0000 0.91046  0.52640  0.03674  Biso   1.000  C
  C51      1.0000 0.52640  0.03674  0.52640  Biso   1.000  C
  C52      1.0000 0.52640  0.91046  0.52640  Biso   1.000  C
  C53      1.0000 0.91046  0.52640  0.52640  Biso   1.000  C
  C54      1.0000 0.03674  0.52640  0.52640  Biso   1.000  C
  C55      1.0000 0.52640  0.03674  0.91046  Biso   1.000  C
  C56      1.0000 0.52640  0.91046  0.03674  Biso   1.000  C
  C57      1.0000 0.38860  0.38860  0.11140  Biso   1.000  C
  C58      1.0000 0.44640  0.44640  0.05360  Biso   1.000  C
  C59      1.0000 0.11140  0.11140  0.38860  Biso   1.000  C
  C60      1.0000 0.05360  0.05360  0.44640  Biso   1.000  C
  C61      1.0000 0.38860  0.11140  0.11140  Biso   1.000  C
  C62      1.0000 0.44640  0.05360  0.05360  Biso   1.000  C
  C63      1.0000 0.11140  0.38860  0.38860  Biso   1.000  C
  C64      1.0000 0.05360  0.44640  0.44640  Biso   1.000  C
  C65      1.0000 0.38860  0.11140  0.38860  Biso   1.000  C
  C66      1.0000 0.44640  0.05360  0.44640  Biso   1.000  C
  C67      1.0000 0.11140  0.38860  0.11140  Biso   1.000  C
  C68      1.0000 0.05360  0.44640  0.05360  Biso   1.000  C
  C69      1.0000 0.61140  0.61140  0.88860  Biso   1.000  C
  C70      1.0000 0.55360  0.55360  0.94640  Biso   1.000  C
  C71      1.0000 0.88860  0.88860  0.61140  Biso   1.000  C
  C72      1.0000 0.94640  0.94640  0.55360  Biso   1.000  C
  C73      1.0000 0.88860  0.61140  0.88860  Biso   1.000  C
  C74      1.0000 0.94640  0.55360  0.94640  Biso   1.000  C
  C75      1.0000 0.61140  0.88860  0.61140  Biso   1.000  C
  C76      1.0000 0.55360  0.94640  0.55360  Biso   1.000  C
  C77      1.0000 0.88860  0.61140  0.61140  Biso   1.000  C
  C78      1.0000 0.94640  0.55360  0.55360  Biso   1.000  C
  C79      1.0000 0.61140  0.88860  0.88860  Biso   1.000  C
  C80      1.0000 0.55360  0.94640  0.94640  Biso   1.000  C
  C81      1.0000 0.25000  0.25000  0.25000  Biso   1.000  C
  C82      1.0000 0.75000  0.75000  0.75000  Biso   1.000  C
  C83      1.0000 0.36604  0.36604  0.07340  Biso   1.000  C
  C84      1.0000 0.36604  0.36604  0.19452  Biso   1.000  C
  C85      1.0000 0.07340  0.19452  0.36604  Biso   1.000  C
  C86      1.0000 0.19452  0.07340  0.36604  Biso   1.000  C
  C87      1.0000 0.36604  0.07340  0.19452  Biso   1.000  C
  C88      1.0000 0.36604  0.19452  0.07340  Biso   1.000  C
  C89      1.0000 0.07340  0.36604  0.36604  Biso   1.000  C
  C90      1.0000 0.19452  0.36604  0.36604  Biso   1.000  C
  C91      1.0000 0.36604  0.19452  0.36604  Biso   1.000  C
  C92      1.0000 0.36604  0.07340  0.36604  Biso   1.000  C
  C93      1.0000 0.07340  0.36604  0.19452  Biso   1.000  C
  C94      1.0000 0.19452  0.36604  0.07340  Biso   1.000  C
  C95      1.0000 0.63396  0.63396  0.92660  Biso   1.000  C
  C96      1.0000 0.63396  0.63396  0.80548  Biso   1.000  C
  C97      1.0000 0.80548  0.92660  0.63396  Biso   1.000  C
  C98      1.0000 0.92660  0.80548  0.63396  Biso   1.000  C
  C99      1.0000 0.92660  0.63396  0.80548  Biso   1.000  C
  C100     1.0000 0.80548  0.63396  0.92660  Biso   1.000  C
  C101     1.0000 0.63396  0.92660  0.63396  Biso   1.000  C
  C102     1.0000 0.63396  0.80548  0.63396  Biso   1.000  C
  C103     1.0000 0.80548  0.63396  0.63396  Biso   1.000  C
  C104     1.0000 0.92660  0.63396  0.63396  Biso   1.000  C
  C105     1.0000 0.63396  0.92660  0.80548  Biso   1.000  C
  C106     1.0000 0.63396  0.80548  0.92660  Biso   1.000  C
  O1       1.0000 0.47829  0.34604  0.67167  Biso   1.000  O
  O2       1.0000 0.65264  0.34605  0.49732  Biso   1.000  O
  O3       1.0000 0.47829  0.34604  0.49733  Biso   1.000  O
  O4       1.0000 0.47830  0.52039  0.49732  Biso   1.000  O
  O5       1.0000 0.07101  0.93136  0.90830  Biso   1.000  O
  O6       1.0000 0.89666  0.93136  0.08265  Biso   1.000  O
  O7       1.0000 0.07101  0.75702  0.08265  Biso   1.000  O
  O8       1.0000 0.07101  0.93137  0.08265  Biso   1.000  O
  O9       1.0000 0.62082  0.18377  0.85368  Biso   1.000  O
  O10      1.0000 0.83835  0.18377  0.63616  Biso   1.000  O
  O11      1.0000 0.31972  0.48488  0.33505  Biso   1.000  O
  O12      1.0000 0.31972  0.70240  0.33505  Biso   1.000  O
  O13      1.0000 0.31972  0.70240  0.63616  Biso   1.000  O
  O14      1.0000 0.31972  0.48488  0.85368  Biso   1.000  O
  O15      1.0000 0.62082  0.18377  0.33505  Biso   1.000  O
  O16      1.0000 0.83835  0.18377  0.33505  Biso   1.000  O
  O17      1.0000 0.83835  0.48488  0.33505  Biso   1.000  O
  O18      1.0000 0.62082  0.70240  0.33505  Biso   1.000  O
  O19      1.0000 0.31972  0.18377  0.63616  Biso   1.000  O
  O20      1.0000 0.31972  0.18377  0.85368  Biso   1.000  O
  O21      1.0000 0.92848  0.09364  0.72629  Biso   1.000  O
  O22      1.0000 0.71095  0.09364  0.94381  Biso   1.000  O
  O23      1.0000 0.22958  0.57501  0.24492  Biso   1.000  O
  O24      1.0000 0.22958  0.79253  0.24492  Biso   1.000  O
  O25      1.0000 0.22958  0.09364  0.94381  Biso   1.000  O
  O26      1.0000 0.22958  0.09364  0.72629  Biso   1.000  O
  O27      1.0000 0.92848  0.57501  0.24492  Biso   1.000  O
  O28      1.0000 0.71095  0.79253  0.24492  Biso   1.000  O
  O29      1.0000 0.71095  0.09364  0.24492  Biso   1.000  O
  O30      1.0000 0.92848  0.09364  0.24492  Biso   1.000  O
  O31      1.0000 0.22958  0.57501  0.94381  Biso   1.000  O
  O32      1.0000 0.22958  0.79253  0.72629  Biso   1.000  O
  O33      1.0000 0.68440  0.16547  0.82672  Biso   1.000  O
  O34      1.0000 0.81139  0.16547  0.69973  Biso   1.000  O
  O35      1.0000 0.30141  0.54845  0.31674  Biso   1.000  O
  O36      1.0000 0.30141  0.67544  0.31674  Biso   1.000  O
  O37      1.0000 0.30141  0.67544  0.69973  Biso   1.000  O
  O38      1.0000 0.30141  0.54845  0.82672  Biso   1.000  O
  O39      1.0000 0.68440  0.16547  0.31674  Biso   1.000  O
  O40      1.0000 0.81139  0.16547  0.31674  Biso   1.000  O
  O41      1.0000 0.81139  0.54845  0.31674  Biso   1.000  O
  O42      1.0000 0.68440  0.67544  0.31674  Biso   1.000  O
  O43      1.0000 0.30141  0.16547  0.69973  Biso   1.000  O
  O44      1.0000 0.30141  0.16547  0.82672  Biso   1.000  O
  O45      1.0000 0.86490  0.11195  0.75325  Biso   1.000  O
  O46      1.0000 0.73791  0.11195  0.88024  Biso   1.000  O
  O47      1.0000 0.24789  0.60197  0.26323  Biso   1.000  O
  O48      1.0000 0.24789  0.72896  0.26323  Biso   1.000  O
  O49      1.0000 0.24789  0.11195  0.88024  Biso   1.000  O
  O50      1.0000 0.24789  0.11195  0.75325  Biso   1.000  O
  O51      1.0000 0.86490  0.60197  0.26323  Biso   1.000  O
  O52      1.0000 0.73791  0.72896  0.26323  Biso   1.000  O
  O53      1.0000 0.73791  0.11195  0.26323  Biso   1.000  O
  O54      1.0000 0.86490  0.11195  0.26323  Biso   1.000  O
  O55      1.0000 0.24789  0.60197  0.88024  Biso   1.000  O
  O56      1.0000 0.24789  0.72896  0.75325  Biso   1.000  O
  O57      1.0000 0.66082  0.25069  0.67985  Biso   1.000  O
  O58      1.0000 0.71903  0.19248  0.73805  Biso   1.000  O
  O59      1.0000 0.38294  0.52857  0.40197  Biso   1.000  O
  O60      1.0000 0.32474  0.58677  0.34376  Biso   1.000  O
  O61      1.0000 0.38294  0.52857  0.67985  Biso   1.000  O
  O62      1.0000 0.32474  0.58677  0.73805  Biso   1.000  O
  O63      1.0000 0.66082  0.25069  0.40197  Biso   1.000  O
  O64      1.0000 0.71903  0.19248  0.34376  Biso   1.000  O
  O65      1.0000 0.66082  0.52857  0.40197  Biso   1.000  O
  O66      1.0000 0.71903  0.58677  0.34376  Biso   1.000  O
  O67      1.0000 0.38294  0.25069  0.67985  Biso   1.000  O
  O68      1.0000 0.32474  0.19248  0.73805  Biso   1.000  O
  O69      1.0000 0.88848  0.02673  0.90012  Biso   1.000  O
  O70      1.0000 0.83027  0.08493  0.84192  Biso   1.000  O
  O71      1.0000 0.16636  0.74884  0.17800  Biso   1.000  O
  O72      1.0000 0.22456  0.69064  0.23621  Biso   1.000  O
  O73      1.0000 0.16636  0.02673  0.90012  Biso   1.000  O
  O74      1.0000 0.22456  0.08493  0.84192  Biso   1.000  O
  O75      1.0000 0.88848  0.74884  0.17800  Biso   1.000  O
  O76      1.0000 0.83027  0.69064  0.23621  Biso   1.000  O
  O77      1.0000 0.88848  0.02673  0.17800  Biso   1.000  O
  O78      1.0000 0.83027  0.08493  0.23621  Biso   1.000  O
  O79      1.0000 0.16636  0.74884  0.90012  Biso   1.000  O
  O80      1.0000 0.22456  0.69064  0.84192  Biso   1.000  O
  O81      1.0000 0.52188  0.38963  0.54091  Biso   1.000  O
  O82      1.0000 0.02742  0.88778  0.03906  Biso   1.000  O
  O83      1.0000 0.57722  0.27311  0.71861  Biso   1.000  O
  O84      1.0000 0.69959  0.27311  0.59624  Biso   1.000  O
  O85      1.0000 0.40536  0.44496  0.42439  Biso   1.000  O
  O86      1.0000 0.40536  0.56733  0.42439  Biso   1.000  O
  O87      1.0000 0.40536  0.56733  0.59624  Biso   1.000  O
  O88      1.0000 0.40536  0.44496  0.71861  Biso   1.000  O
  O89      1.0000 0.57722  0.27311  0.42439  Biso   1.000  O
  O90      1.0000 0.69959  0.27311  0.42439  Biso   1.000  O
  O91      1.0000 0.69959  0.44496  0.42439  Biso   1.000  O
  O92      1.0000 0.57722  0.56733  0.42439  Biso   1.000  O
  O93      1.0000 0.40536  0.27311  0.59624  Biso   1.000  O
  O94      1.0000 0.40536  0.27311  0.71861  Biso   1.000  O
  O95      1.0000 0.97208  0.00430  0.86136  Biso   1.000  O
  O96      1.0000 0.84971  0.00430  0.98373  Biso   1.000  O
  O97      1.0000 0.14394  0.71008  0.15558  Biso   1.000  O
  O98      1.0000 0.14394  0.83245  0.15558  Biso   1.000  O
  O99      1.0000 0.14394  0.00430  0.98373  Biso   1.000  O
  O100     1.0000 0.14394  0.00430  0.86136  Biso   1.000  O
  O101     1.0000 0.97209  0.71008  0.15558  Biso   1.000  O
  O102     1.0000 0.84971  0.83245  0.15558  Biso   1.000  O
  O103     1.0000 0.84971  0.00430  0.15558  Biso   1.000  O
  O104     1.0000 0.97208  0.00430  0.15558  Biso   1.000  O
  O105     1.0000 0.14394  0.71008  0.98373  Biso   1.000  O
