data_image0
_cell_length_a       18.3017
_cell_length_b       18.3017
_cell_length_c       18.3017
_cell_angle_alpha    60
_cell_angle_beta     60
_cell_angle_gamma    60

_symmetry_space_group_name_H-M    "P 1"
_symmetry_int_tables_number       1

loop_
  _symmetry_equiv_pos_as_xyz
  'x, y, z'

loop_
  _atom_site_label
  _atom_site_occupancy
  _atom_site_fract_x
  _atom_site_fract_y
  _atom_site_fract_z
  _atom_site_thermal_displace_type
  _atom_site_B_iso_or_equiv
  _atom_site_type_symbol
  Zn1      1.0000 0.29342  0.29343  0.11972  Biso   1.000  Zn
  Zn2      1.0000 0.29343  0.29342  0.29343  Biso   1.000  Zn
  Zn3      1.0000 0.11972  0.29343  0.29342  Biso   1.000  Zn
  Zn4      1.0000 0.29343  0.11972  0.29343  Biso   1.000  Zn
  Zn5      1.0000 0.70657  0.70658  0.88028  Biso   1.000  Zn
  Zn6      1.0000 0.70657  0.70658  0.70657  Biso   1.000  Zn
  Zn7      1.0000 0.70658  0.88028  0.70657  Biso   1.000  Zn
  Zn8      1.0000 0.88029  0.70657  0.70657  Biso   1.000  Zn
  H1       1.0000 0.45510  0.45510  0.93470  Biso   1.000  H
  H2       1.0000 0.45510  0.45510  0.15510  Biso   1.000  H
  H3       1.0000 0.93470  0.15510  0.45510  Biso   1.000  H
  H4       1.0000 0.15510  0.93470  0.45510  Biso   1.000  H
  H5       1.0000 0.45510  0.93470  0.15510  Biso   1.000  H
  H6       1.0000 0.45510  0.15510  0.93470  Biso   1.000  H
  H7       1.0000 0.93470  0.45510  0.45510  Biso   1.000  H
  H8       1.0000 0.15510  0.45510  0.45510  Biso   1.000  H
  H9       1.0000 0.45510  0.15510  0.45510  Biso   1.000  H
  H10      1.0000 0.45510  0.93470  0.45510  Biso   1.000  H
  H11      1.0000 0.93470  0.45510  0.15510  Biso   1.000  H
  H12      1.0000 0.15510  0.45510  0.93470  Biso   1.000  H
  H13      1.0000 0.54490  0.54490  0.06530  Biso   1.000  H
  H14      1.0000 0.54490  0.54490  0.84490  Biso   1.000  H
  H15      1.0000 0.84490  0.06530  0.54490  Biso   1.000  H
  H16      1.0000 0.06530  0.84490  0.54490  Biso   1.000  H
  H17      1.0000 0.06530  0.54490  0.84490  Biso   1.000  H
  H18      1.0000 0.84490  0.54490  0.06530  Biso   1.000  H
  H19      1.0000 0.54490  0.06530  0.54490  Biso   1.000  H
  H20      1.0000 0.54490  0.84490  0.54490  Biso   1.000  H
  H21      1.0000 0.84490  0.54490  0.54490  Biso   1.000  H
  H22      1.0000 0.06530  0.54490  0.54490  Biso   1.000  H
  H23      1.0000 0.54490  0.06530  0.84490  Biso   1.000  H
  H24      1.0000 0.54490  0.84490  0.06530  Biso   1.000  H
  C1       1.0000 0.47334  0.47334  0.96156  Biso   1.000  C
  C2       1.0000 0.47334  0.47334  0.09176  Biso   1.000  C
  C3       1.0000 0.96156  0.09176  0.47334  Biso   1.000  C
  C4       1.0000 0.09176  0.96156  0.47334  Biso   1.000  C
  C5       1.0000 0.47334  0.96156  0.09176  Biso   1.000  C
  C6       1.0000 0.47334  0.09176  0.96156  Biso   1.000  C
  C7       1.0000 0.96156  0.47334  0.47334  Biso   1.000  C
  C8       1.0000 0.09176  0.47334  0.47334  Biso   1.000  C
  C9       1.0000 0.47334  0.09176  0.47334  Biso   1.000  C
  C10      1.0000 0.47334  0.96156  0.47334  Biso   1.000  C
  C11      1.0000 0.96156  0.47334  0.09176  Biso   1.000  C
  C12      1.0000 0.09176  0.47334  0.96156  Biso   1.000  C
  C13      1.0000 0.52666  0.52666  0.03844  Biso   1.000  C
  C14      1.0000 0.52666  0.52666  0.90824  Biso   1.000  C
  C15      1.0000 0.90824  0.03844  0.52666  Biso   1.000  C
  C16      1.0000 0.03844  0.90824  0.52666  Biso   1.000  C
  C17      1.0000 0.03844  0.52666  0.90824  Biso   1.000  C
  C18      1.0000 0.90824  0.52666  0.03844  Biso   1.000  C
  C19      1.0000 0.52666  0.03844  0.52666  Biso   1.000  C
  C20      1.0000 0.52666  0.90824  0.52666  Biso   1.000  C
  C21      1.0000 0.90824  0.52666  0.52666  Biso   1.000  C
  C22      1.0000 0.03844  0.52666  0.52666  Biso   1.000  C
  C23      1.0000 0.52666  0.03844  0.90824  Biso   1.000  C
  C24      1.0000 0.52666  0.90824  0.03844  Biso   1.000  C
  C25      1.0000 0.38843  0.38843  0.11157  Biso   1.000  C
  C26      1.0000 0.44642  0.44642  0.05358  Biso   1.000  C
  C27      1.0000 0.11157  0.11157  0.38843  Biso   1.000  C
  C28      1.0000 0.05358  0.05358  0.44642  Biso   1.000  C
  C29      1.0000 0.38843  0.11157  0.11157  Biso   1.000  C
  C30      1.0000 0.44642  0.05358  0.05358  Biso   1.000  C
  C31      1.0000 0.11157  0.38843  0.38843  Biso   1.000  C
  C32      1.0000 0.05358  0.44642  0.44642  Biso   1.000  C
  C33      1.0000 0.38843  0.11157  0.38843  Biso   1.000  C
  C34      1.0000 0.44642  0.05358  0.44642  Biso   1.000  C
  C35      1.0000 0.11157  0.38843  0.11157  Biso   1.000  C
  C36      1.0000 0.05358  0.44642  0.05358  Biso   1.000  C
  C37      1.0000 0.61157  0.61157  0.88843  Biso   1.000  C
  C38      1.0000 0.55358  0.55358  0.94642  Biso   1.000  C
  C39      1.0000 0.88843  0.88843  0.61157  Biso   1.000  C
  C40      1.0000 0.94642  0.94642  0.55358  Biso   1.000  C
  C41      1.0000 0.88843  0.61157  0.88843  Biso   1.000  C
  C42      1.0000 0.94642  0.55358  0.94642  Biso   1.000  C
  C43      1.0000 0.61157  0.88843  0.61157  Biso   1.000  C
  C44      1.0000 0.55358  0.94642  0.55358  Biso   1.000  C
  C45      1.0000 0.88843  0.61157  0.61157  Biso   1.000  C
  C46      1.0000 0.94642  0.55358  0.55358  Biso   1.000  C
  C47      1.0000 0.61157  0.88843  0.88843  Biso   1.000  C
  C48      1.0000 0.55358  0.94642  0.94642  Biso   1.000  C
  O1       1.0000 0.25000  0.25000  0.25000  Biso   1.000  O
  O2       1.0000 0.75000  0.75000  0.75000  Biso   1.000  O
  O3       1.0000 0.36609  0.36609  0.07295  Biso   1.000  O
  O4       1.0000 0.36609  0.36609  0.19487  Biso   1.000  O
  O5       1.0000 0.07295  0.19487  0.36609  Biso   1.000  O
  O6       1.0000 0.19487  0.07295  0.36609  Biso   1.000  O
  O7       1.0000 0.36609  0.07295  0.19487  Biso   1.000  O
  O8       1.0000 0.36609  0.19487  0.07295  Biso   1.000  O
  O9       1.0000 0.07295  0.36609  0.36609  Biso   1.000  O
  O10      1.0000 0.19487  0.36609  0.36609  Biso   1.000  O
  O11      1.0000 0.36609  0.19487  0.36609  Biso   1.000  O
  O12      1.0000 0.36609  0.07295  0.36609  Biso   1.000  O
  O13      1.0000 0.07295  0.36609  0.19487  Biso   1.000  O
  O14      1.0000 0.19487  0.36609  0.07295  Biso   1.000  O
  O15      1.0000 0.63391  0.63391  0.92705  Biso   1.000  O
  O16      1.0000 0.63391  0.63391  0.80513  Biso   1.000  O
  O17      1.0000 0.80513  0.92705  0.63391  Biso   1.000  O
  O18      1.0000 0.92705  0.80513  0.63391  Biso   1.000  O
  O19      1.0000 0.92705  0.63391  0.80513  Biso   1.000  O
  O20      1.0000 0.80513  0.63391  0.92705  Biso   1.000  O
  O21      1.0000 0.63391  0.92705  0.63391  Biso   1.000  O
  O22      1.0000 0.63391  0.80513  0.63391  Biso   1.000  O
  O23      1.0000 0.80513  0.63391  0.63391  Biso   1.000  O
  O24      1.0000 0.92705  0.63391  0.63391  Biso   1.000  O
  O25      1.0000 0.63391  0.92705  0.80513  Biso   1.000  O
  O26      1.0000 0.63391  0.80513  0.92705  Biso   1.000  O
  Zn9      1.0000 0.50188  0.51939  0.33460  Biso   1.000  Zn
  Zn10     1.0000 0.50188  0.51939  0.50824  Biso   1.000  Zn
  Zn11     1.0000 0.32824  0.51939  0.50824  Biso   1.000  Zn
  Zn12     1.0000 0.50188  0.34575  0.50824  Biso   1.000  Zn
  Zn13     1.0000 0.91328  0.93077  0.09326  Biso   1.000  Zn
  Zn14     1.0000 0.91328  0.93077  0.91962  Biso   1.000  Zn
  Zn15     1.0000 0.91328  0.10441  0.91962  Biso   1.000  Zn
  Zn16     1.0000 0.08692  0.93077  0.91962  Biso   1.000  Zn
  H25      1.0000 0.66374  0.68124  0.14876  Biso   1.000  H
  H26      1.0000 0.66374  0.68124  0.36678  Biso   1.000  H
  H27      1.0000 0.14241  0.37793  0.67009  Biso   1.000  H
  H28      1.0000 0.36043  0.15991  0.67009  Biso   1.000  H
  H29      1.0000 0.66374  0.15991  0.36678  Biso   1.000  H
  H30      1.0000 0.66374  0.37793  0.14876  Biso   1.000  H
  H31      1.0000 0.14241  0.68124  0.67009  Biso   1.000  H
  H32      1.0000 0.36043  0.68124  0.67009  Biso   1.000  H
  H33      1.0000 0.66374  0.37793  0.67009  Biso   1.000  H
  H34      1.0000 0.66374  0.15991  0.67009  Biso   1.000  H
  H35      1.0000 0.14241  0.68124  0.36678  Biso   1.000  H
  H36      1.0000 0.36043  0.68124  0.14876  Biso   1.000  H
  H37      1.0000 0.75142  0.76892  0.27910  Biso   1.000  H
  H38      1.0000 0.75142  0.76892  0.06108  Biso   1.000  H
  H39      1.0000 0.05473  0.29025  0.75777  Biso   1.000  H
  H40      1.0000 0.27275  0.07223  0.75777  Biso   1.000  H
  H41      1.0000 0.27275  0.76892  0.06108  Biso   1.000  H
  H42      1.0000 0.05473  0.76892  0.27910  Biso   1.000  H
  H43      1.0000 0.75142  0.29025  0.75777  Biso   1.000  H
  H44      1.0000 0.75142  0.07223  0.75777  Biso   1.000  H
  H45      1.0000 0.05473  0.76892  0.75777  Biso   1.000  H
  H46      1.0000 0.27275  0.76892  0.75777  Biso   1.000  H
  H47      1.0000 0.75142  0.29025  0.06108  Biso   1.000  H
  H48      1.0000 0.75142  0.07223  0.27910  Biso   1.000  H
  C49      1.0000 0.68127  0.69878  0.17546  Biso   1.000  C
  C50      1.0000 0.68127  0.69878  0.30501  Biso   1.000  C
  C51      1.0000 0.16911  0.31616  0.68762  Biso   1.000  C
  C52      1.0000 0.29865  0.18661  0.68762  Biso   1.000  C
  C53      1.0000 0.68127  0.18661  0.30501  Biso   1.000  C
  C54      1.0000 0.68127  0.31616  0.17546  Biso   1.000  C
  C55      1.0000 0.16911  0.69878  0.68762  Biso   1.000  C
  C56      1.0000 0.29865  0.69878  0.68762  Biso   1.000  C
  C57      1.0000 0.68127  0.31616  0.68762  Biso   1.000  C
  C58      1.0000 0.68127  0.18661  0.68762  Biso   1.000  C
  C59      1.0000 0.16911  0.69878  0.30501  Biso   1.000  C
  C60      1.0000 0.29865  0.69878  0.17546  Biso   1.000  C
  C61      1.0000 0.73388  0.75139  0.25240  Biso   1.000  C
  C62      1.0000 0.73388  0.75139  0.12285  Biso   1.000  C
  C63      1.0000 0.11650  0.26355  0.74024  Biso   1.000  C
  C64      1.0000 0.24604  0.13400  0.74024  Biso   1.000  C
  C65      1.0000 0.24604  0.75139  0.12285  Biso   1.000  C
  C66      1.0000 0.11650  0.75139  0.25240  Biso   1.000  C
  C67      1.0000 0.73388  0.26355  0.74024  Biso   1.000  C
  C68      1.0000 0.73388  0.13400  0.74024  Biso   1.000  C
  C69      1.0000 0.11650  0.75139  0.74024  Biso   1.000  C
  C70      1.0000 0.24604  0.75139  0.74024  Biso   1.000  C
  C71      1.0000 0.73388  0.26355  0.12285  Biso   1.000  C
  C72      1.0000 0.73388  0.13400  0.25240  Biso   1.000  C
  C73      1.0000 0.59658  0.61408  0.32673  Biso   1.000  C
  C74      1.0000 0.65407  0.67157  0.26923  Biso   1.000  C
  C75      1.0000 0.32037  0.33788  0.60293  Biso   1.000  C
  C76      1.0000 0.26288  0.28038  0.66042  Biso   1.000  C
  C77      1.0000 0.59658  0.33788  0.32673  Biso   1.000  C
  C78      1.0000 0.65407  0.28038  0.26923  Biso   1.000  C
  C79      1.0000 0.32037  0.61408  0.60293  Biso   1.000  C
  C80      1.0000 0.26288  0.67157  0.66042  Biso   1.000  C
  C81      1.0000 0.59658  0.33788  0.60293  Biso   1.000  C
  C82      1.0000 0.65407  0.28038  0.66042  Biso   1.000  C
  C83      1.0000 0.32037  0.61408  0.32673  Biso   1.000  C
  C84      1.0000 0.26288  0.67157  0.26923  Biso   1.000  C
  C85      1.0000 0.81858  0.83608  0.10113  Biso   1.000  C
  C86      1.0000 0.76108  0.77859  0.15863  Biso   1.000  C
  C87      1.0000 0.09478  0.11228  0.82493  Biso   1.000  C
  C88      1.0000 0.15227  0.16978  0.76744  Biso   1.000  C
  C89      1.0000 0.09478  0.83608  0.10113  Biso   1.000  C
  C90      1.0000 0.15227  0.77859  0.15863  Biso   1.000  C
  C91      1.0000 0.81858  0.11228  0.82493  Biso   1.000  C
  C92      1.0000 0.76108  0.16978  0.76744  Biso   1.000  C
  C93      1.0000 0.09478  0.83608  0.82493  Biso   1.000  C
  C94      1.0000 0.15227  0.77859  0.76744  Biso   1.000  C
  C95      1.0000 0.81858  0.11228  0.10113  Biso   1.000  C
  C96      1.0000 0.76108  0.16978  0.15863  Biso   1.000  C
  O27      1.0000 0.45848  0.47598  0.46483  Biso   1.000  O
  O28      1.0000 0.95668  0.97418  0.96303  Biso   1.000  O
  O29      1.0000 0.57411  0.59161  0.28869  Biso   1.000  O
  O30      1.0000 0.57411  0.59161  0.40970  Biso   1.000  O
  O31      1.0000 0.28234  0.42085  0.58046  Biso   1.000  O
  O32      1.0000 0.40335  0.29984  0.58046  Biso   1.000  O
  O33      1.0000 0.57411  0.29984  0.40970  Biso   1.000  O
  O34      1.0000 0.57411  0.42085  0.28869  Biso   1.000  O
  O35      1.0000 0.28234  0.59161  0.58046  Biso   1.000  O
  O36      1.0000 0.40335  0.59161  0.58046  Biso   1.000  O
  O37      1.0000 0.57411  0.42085  0.58046  Biso   1.000  O
  O38      1.0000 0.57411  0.29984  0.58046  Biso   1.000  O
  O39      1.0000 0.28234  0.59161  0.40970  Biso   1.000  O
  O40      1.0000 0.40335  0.59161  0.28869  Biso   1.000  O
  O41      1.0000 0.84105  0.85855  0.13917  Biso   1.000  O
  O42      1.0000 0.84105  0.85855  0.01816  Biso   1.000  O
  O43      1.0000 0.01181  0.15032  0.84740  Biso   1.000  O
  O44      1.0000 0.13281  0.02931  0.84740  Biso   1.000  O
  O45      1.0000 0.13281  0.85855  0.01816  Biso   1.000  O
  O46      1.0000 0.01181  0.85855  0.13917  Biso   1.000  O
  O47      1.0000 0.84105  0.15032  0.84740  Biso   1.000  O
  O48      1.0000 0.84105  0.02931  0.84740  Biso   1.000  O
  O49      1.0000 0.01181  0.85855  0.84740  Biso   1.000  O
  O50      1.0000 0.13281  0.85855  0.84740  Biso   1.000  O
  O51      1.0000 0.84105  0.15032  0.01816  Biso   1.000  O
