data_image0
_cell_length_a       18.2359
_cell_length_b       18.2359
_cell_length_c       18.2359
_cell_angle_alpha    60
_cell_angle_beta     60
_cell_angle_gamma    60

_symmetry_space_group_name_H-M    "P 1"
_symmetry_int_tables_number       1

loop_
  _symmetry_equiv_pos_as_xyz
  'x, y, z'

loop_
  _atom_site_label
  _atom_site_occupancy
  _atom_site_fract_x
  _atom_site_fract_y
  _atom_site_fract_z
  _atom_site_thermal_displace_type
  _atom_site_B_iso_or_equiv
  _atom_site_type_symbol
  Zn1      1.0000 0.29356  0.29357  0.11930  Biso   1.000  Zn
  Zn2      1.0000 0.29356  0.29357  0.29357  Biso   1.000  Zn
  Zn3      1.0000 0.11929  0.29357  0.29357  Biso   1.000  Zn
  Zn4      1.0000 0.29356  0.11930  0.29357  Biso   1.000  Zn
  Zn5      1.0000 0.70644  0.70643  0.88070  Biso   1.000  Zn
  Zn6      1.0000 0.70644  0.70643  0.70643  Biso   1.000  Zn
  Zn7      1.0000 0.70644  0.88070  0.70643  Biso   1.000  Zn
  Zn8      1.0000 0.88071  0.70643  0.70643  Biso   1.000  Zn
  H1       1.0000 0.45600  0.45600  0.93640  Biso   1.000  H
  H2       1.0000 0.45600  0.45600  0.15160  Biso   1.000  H
  H3       1.0000 0.93640  0.15160  0.45600  Biso   1.000  H
  H4       1.0000 0.15160  0.93640  0.45600  Biso   1.000  H
  H5       1.0000 0.45600  0.93640  0.15160  Biso   1.000  H
  H6       1.0000 0.45600  0.15160  0.93640  Biso   1.000  H
  H7       1.0000 0.93640  0.45600  0.45600  Biso   1.000  H
  H8       1.0000 0.15160  0.45600  0.45600  Biso   1.000  H
  H9       1.0000 0.45600  0.15160  0.45600  Biso   1.000  H
  H10      1.0000 0.45600  0.93640  0.45600  Biso   1.000  H
  H11      1.0000 0.93640  0.45600  0.15160  Biso   1.000  H
  H12      1.0000 0.15160  0.45600  0.93640  Biso   1.000  H
  H13      1.0000 0.54400  0.54400  0.06360  Biso   1.000  H
  H14      1.0000 0.54400  0.54400  0.84840  Biso   1.000  H
  H15      1.0000 0.84840  0.06360  0.54400  Biso   1.000  H
  H16      1.0000 0.06360  0.84840  0.54400  Biso   1.000  H
  H17      1.0000 0.06360  0.54400  0.84840  Biso   1.000  H
  H18      1.0000 0.84840  0.54400  0.06360  Biso   1.000  H
  H19      1.0000 0.54400  0.06360  0.54400  Biso   1.000  H
  H20      1.0000 0.54400  0.84840  0.54400  Biso   1.000  H
  H21      1.0000 0.84840  0.54400  0.54400  Biso   1.000  H
  H22      1.0000 0.06360  0.54400  0.54400  Biso   1.000  H
  H23      1.0000 0.54400  0.06360  0.84840  Biso   1.000  H
  H24      1.0000 0.54400  0.84840  0.06360  Biso   1.000  H
  C1       1.0000 0.47360  0.47360  0.96320  Biso   1.000  C
  C2       1.0000 0.47360  0.47360  0.08960  Biso   1.000  C
  C3       1.0000 0.96320  0.08960  0.47360  Biso   1.000  C
  C4       1.0000 0.08960  0.96320  0.47360  Biso   1.000  C
  C5       1.0000 0.47360  0.96320  0.08960  Biso   1.000  C
  C6       1.0000 0.47360  0.08960  0.96320  Biso   1.000  C
  C7       1.0000 0.96320  0.47360  0.47360  Biso   1.000  C
  C8       1.0000 0.08960  0.47360  0.47360  Biso   1.000  C
  C9       1.0000 0.47360  0.08960  0.47360  Biso   1.000  C
  C10      1.0000 0.47360  0.96320  0.47360  Biso   1.000  C
  C11      1.0000 0.96320  0.47360  0.08960  Biso   1.000  C
  C12      1.0000 0.08960  0.47360  0.96320  Biso   1.000  C
  C13      1.0000 0.52640  0.52640  0.03680  Biso   1.000  C
  C14      1.0000 0.52640  0.52640  0.91040  Biso   1.000  C
  C15      1.0000 0.91040  0.03680  0.52640  Biso   1.000  C
  C16      1.0000 0.03680  0.91040  0.52640  Biso   1.000  C
  C17      1.0000 0.03680  0.52640  0.91040  Biso   1.000  C
  C18      1.0000 0.91040  0.52640  0.03680  Biso   1.000  C
  C19      1.0000 0.52640  0.03680  0.52640  Biso   1.000  C
  C20      1.0000 0.52640  0.91040  0.52640  Biso   1.000  C
  C21      1.0000 0.91040  0.52640  0.52640  Biso   1.000  C
  C22      1.0000 0.03680  0.52640  0.52640  Biso   1.000  C
  C23      1.0000 0.52640  0.03680  0.91040  Biso   1.000  C
  C24      1.0000 0.52640  0.91040  0.03680  Biso   1.000  C
  C25      1.0000 0.38860  0.38860  0.11140  Biso   1.000  C
  C26      1.0000 0.44630  0.44630  0.05370  Biso   1.000  C
  C27      1.0000 0.11140  0.11140  0.38860  Biso   1.000  C
  C28      1.0000 0.05370  0.05370  0.44630  Biso   1.000  C
  C29      1.0000 0.38860  0.11140  0.11140  Biso   1.000  C
  C30      1.0000 0.44630  0.05370  0.05370  Biso   1.000  C
  C31      1.0000 0.11140  0.38860  0.38860  Biso   1.000  C
  C32      1.0000 0.05370  0.44630  0.44630  Biso   1.000  C
  C33      1.0000 0.38860  0.11140  0.38860  Biso   1.000  C
  C34      1.0000 0.44630  0.05370  0.44630  Biso   1.000  C
  C35      1.0000 0.11140  0.38860  0.11140  Biso   1.000  C
  C36      1.0000 0.05370  0.44630  0.05370  Biso   1.000  C
  C37      1.0000 0.61140  0.61140  0.88860  Biso   1.000  C
  C38      1.0000 0.55370  0.55370  0.94630  Biso   1.000  C
  C39      1.0000 0.88860  0.88860  0.61140  Biso   1.000  C
  C40      1.0000 0.94630  0.94630  0.55370  Biso   1.000  C
  C41      1.0000 0.88860  0.61140  0.88860  Biso   1.000  C
  C42      1.0000 0.94630  0.55370  0.94630  Biso   1.000  C
  C43      1.0000 0.61140  0.88860  0.61140  Biso   1.000  C
  C44      1.0000 0.55370  0.94630  0.55370  Biso   1.000  C
  C45      1.0000 0.88860  0.61140  0.61140  Biso   1.000  C
  C46      1.0000 0.94630  0.55370  0.55370  Biso   1.000  C
  C47      1.0000 0.61140  0.88860  0.88860  Biso   1.000  C
  C48      1.0000 0.55370  0.94630  0.94630  Biso   1.000  C
  O1       1.0000 0.25000  0.25000  0.25000  Biso   1.000  O
  O2       1.0000 0.75000  0.75000  0.75000  Biso   1.000  O
  O3       1.0000 0.36605  0.36605  0.07323  Biso   1.000  O
  O4       1.0000 0.36605  0.36605  0.19467  Biso   1.000  O
  O5       1.0000 0.07323  0.19467  0.36605  Biso   1.000  O
  O6       1.0000 0.19467  0.07323  0.36605  Biso   1.000  O
  O7       1.0000 0.36605  0.07323  0.19467  Biso   1.000  O
  O8       1.0000 0.36605  0.19467  0.07323  Biso   1.000  O
  O9       1.0000 0.07323  0.36605  0.36605  Biso   1.000  O
  O10      1.0000 0.19467  0.36605  0.36605  Biso   1.000  O
  O11      1.0000 0.36605  0.19467  0.36605  Biso   1.000  O
  O12      1.0000 0.36605  0.07323  0.36605  Biso   1.000  O
  O13      1.0000 0.07323  0.36605  0.19467  Biso   1.000  O
  O14      1.0000 0.19467  0.36605  0.07323  Biso   1.000  O
  O15      1.0000 0.63395  0.63395  0.92677  Biso   1.000  O
  O16      1.0000 0.63395  0.63395  0.80533  Biso   1.000  O
  O17      1.0000 0.80533  0.92677  0.63395  Biso   1.000  O
  O18      1.0000 0.92677  0.80533  0.63395  Biso   1.000  O
  O19      1.0000 0.92677  0.63395  0.80533  Biso   1.000  O
  O20      1.0000 0.80533  0.63395  0.92677  Biso   1.000  O
  O21      1.0000 0.63395  0.92677  0.63395  Biso   1.000  O
  O22      1.0000 0.63395  0.80533  0.63395  Biso   1.000  O
  O23      1.0000 0.80533  0.63395  0.63395  Biso   1.000  O
  O24      1.0000 0.92677  0.63395  0.63395  Biso   1.000  O
  O25      1.0000 0.63395  0.92677  0.80533  Biso   1.000  O
  O26      1.0000 0.63395  0.80533  0.92677  Biso   1.000  O
  Zn9      1.0000 0.68675  0.34985  0.47013  Biso   1.000  Zn
  Zn10     1.0000 0.50845  0.34985  0.64843  Biso   1.000  Zn
  Zn11     1.0000 0.50845  0.52815  0.47013  Biso   1.000  Zn
  Zn12     1.0000 0.50845  0.34985  0.47013  Biso   1.000  Zn
  Zn13     1.0000 0.09156  0.93899  0.88703  Biso   1.000  Zn
  Zn14     1.0000 0.91932  0.93899  0.05927  Biso   1.000  Zn
  Zn15     1.0000 0.09156  0.93899  0.05927  Biso   1.000  Zn
  Zn16     1.0000 0.09156  0.76676  0.05927  Biso   1.000  Zn
  H25      1.0000 0.94821  0.10238  0.70361  Biso   1.000  H
  H26      1.0000 0.73590  0.10238  0.91592  Biso   1.000  H
  H27      1.0000 0.25495  0.79564  0.22266  Biso   1.000  H
  H28      1.0000 0.25495  0.58333  0.22266  Biso   1.000  H
  H29      1.0000 0.25495  0.58333  0.91592  Biso   1.000  H
  H30      1.0000 0.25495  0.79564  0.70361  Biso   1.000  H
  H31      1.0000 0.94821  0.10238  0.22266  Biso   1.000  H
  H32      1.0000 0.73590  0.10238  0.22266  Biso   1.000  H
  H33      1.0000 0.73590  0.79564  0.22266  Biso   1.000  H
  H34      1.0000 0.94821  0.58333  0.22266  Biso   1.000  H
  H35      1.0000 0.25495  0.10238  0.91592  Biso   1.000  H
  H36      1.0000 0.25495  0.10238  0.70361  Biso   1.000  H
  C49      1.0000 0.83818  0.16928  0.67985  Biso   1.000  C
  C50      1.0000 0.88628  0.11898  0.73233  Biso   1.000  C
  C51      1.0000 0.71214  0.16928  0.80589  Biso   1.000  C
  C52      1.0000 0.76462  0.11898  0.85399  Biso   1.000  C
  C53      1.0000 0.32184  0.68561  0.28955  Biso   1.000  C
  C54      1.0000 0.27155  0.73372  0.23926  Biso   1.000  C
  C55      1.0000 0.32184  0.55957  0.28955  Biso   1.000  C
  C56      1.0000 0.27155  0.61206  0.23926  Biso   1.000  C
  C57      1.0000 0.32184  0.55957  0.80589  Biso   1.000  C
  C58      1.0000 0.27155  0.61206  0.85399  Biso   1.000  C
  C59      1.0000 0.32184  0.68561  0.67985  Biso   1.000  C
  C60      1.0000 0.27155  0.73372  0.73233  Biso   1.000  C
  C61      1.0000 0.83818  0.16928  0.28955  Biso   1.000  C
  C62      1.0000 0.88628  0.11898  0.23926  Biso   1.000  C
  C63      1.0000 0.71214  0.16928  0.28955  Biso   1.000  C
  C64      1.0000 0.76462  0.11898  0.23926  Biso   1.000  C
  C65      1.0000 0.71214  0.68561  0.28955  Biso   1.000  C
  C66      1.0000 0.76462  0.73372  0.23926  Biso   1.000  C
  C67      1.0000 0.83818  0.55957  0.28955  Biso   1.000  C
  C68      1.0000 0.88628  0.61206  0.23926  Biso   1.000  C
  C69      1.0000 0.32184  0.16928  0.80589  Biso   1.000  C
  C70      1.0000 0.27155  0.11898  0.85399  Biso   1.000  C
  C71      1.0000 0.32184  0.16928  0.67985  Biso   1.000  C
  C72      1.0000 0.27155  0.11898  0.73233  Biso   1.000  C
  C73      1.0000 0.68719  0.25724  0.65490  Biso   1.000  C
  C74      1.0000 0.75081  0.19363  0.71852  Biso   1.000  C
  C75      1.0000 0.90775  0.03668  0.87546  Biso   1.000  C
  C76      1.0000 0.85756  0.08688  0.82527  Biso   1.000  C
  C77      1.0000 0.40981  0.53462  0.37752  Biso   1.000  C
  C78      1.0000 0.34620  0.59824  0.31391  Biso   1.000  C
  C79      1.0000 0.18925  0.75519  0.15696  Biso   1.000  C
  C80      1.0000 0.23944  0.70499  0.20715  Biso   1.000  C
  C81      1.0000 0.40981  0.53462  0.65490  Biso   1.000  C
  C82      1.0000 0.34620  0.59824  0.71852  Biso   1.000  C
  C83      1.0000 0.18925  0.75519  0.87546  Biso   1.000  C
  C84      1.0000 0.23944  0.70499  0.82527  Biso   1.000  C
  C85      1.0000 0.68719  0.25724  0.37752  Biso   1.000  C
  C86      1.0000 0.75081  0.19363  0.31391  Biso   1.000  C
  C87      1.0000 0.90775  0.03668  0.15696  Biso   1.000  C
  C88      1.0000 0.85756  0.08688  0.20715  Biso   1.000  C
  C89      1.0000 0.68719  0.53462  0.37752  Biso   1.000  C
  C90      1.0000 0.75081  0.59824  0.31391  Biso   1.000  C
  C91      1.0000 0.90775  0.75519  0.15696  Biso   1.000  C
  C92      1.0000 0.85756  0.70499  0.20715  Biso   1.000  C
  C93      1.0000 0.40981  0.25724  0.65490  Biso   1.000  C
  C94      1.0000 0.34620  0.19363  0.71852  Biso   1.000  C
  C95      1.0000 0.18925  0.03668  0.87546  Biso   1.000  C
  C96      1.0000 0.23944  0.08688  0.82527  Biso   1.000  C
  O27      1.0000 0.04850  0.89593  0.01621  Biso   1.000  O
  O28      1.0000 0.55754  0.39292  0.51320  Biso   1.000  O
  O29      1.0000 0.72576  0.27911  0.57260  Biso   1.000  O
  O30      1.0000 0.99254  0.01193  0.84018  Biso   1.000  O
  O31      1.0000 0.60489  0.27911  0.69347  Biso   1.000  O
  O32      1.0000 0.87247  0.01193  0.96025  Biso   1.000  O
  O33      1.0000 0.43168  0.57319  0.39939  Biso   1.000  O
  O34      1.0000 0.16450  0.83997  0.13221  Biso   1.000  O
  O35      1.0000 0.43168  0.45232  0.39939  Biso   1.000  O
  O36      1.0000 0.16450  0.71990  0.13221  Biso   1.000  O
  O37      1.0000 0.43168  0.45232  0.69347  Biso   1.000  O
  O38      1.0000 0.16450  0.71990  0.96025  Biso   1.000  O
  O39      1.0000 0.43168  0.57319  0.57260  Biso   1.000  O
  O40      1.0000 0.16450  0.83997  0.84018  Biso   1.000  O
  O41      1.0000 0.72576  0.27911  0.39939  Biso   1.000  O
  O42      1.0000 0.99254  0.01193  0.13221  Biso   1.000  O
  O43      1.0000 0.60489  0.27911  0.39939  Biso   1.000  O
  O44      1.0000 0.87247  0.01193  0.13221  Biso   1.000  O
  O45      1.0000 0.60489  0.57319  0.39939  Biso   1.000  O
  O46      1.0000 0.87247  0.83997  0.13221  Biso   1.000  O
  O47      1.0000 0.72576  0.45232  0.39939  Biso   1.000  O
  O48      1.0000 0.99254  0.71990  0.13221  Biso   1.000  O
  O49      1.0000 0.43168  0.27911  0.69347  Biso   1.000  O
  O50      1.0000 0.16450  0.01193  0.96025  Biso   1.000  O
  O51      1.0000 0.43168  0.27911  0.57260  Biso   1.000  O
