data_image0
_cell_length_a       18.3083
_cell_length_b       18.3083
_cell_length_c       18.3083
_cell_angle_alpha    60
_cell_angle_beta     60
_cell_angle_gamma    60

_symmetry_space_group_name_H-M    "P 1"
_symmetry_int_tables_number       1

loop_
  _symmetry_equiv_pos_as_xyz
  'x, y, z'

loop_
  _atom_site_label
  _atom_site_occupancy
  _atom_site_fract_x
  _atom_site_fract_y
  _atom_site_fract_z
  _atom_site_thermal_displace_type
  _atom_site_B_iso_or_equiv
  _atom_site_type_symbol
  C1       1.0000 0.29342  0.29341  0.11976  Biso   1.000  C
  C2       1.0000 0.29342  0.29341  0.29341  Biso   1.000  C
  C3       1.0000 0.11977  0.29341  0.29341  Biso   1.000  C
  C4       1.0000 0.29342  0.11976  0.29341  Biso   1.000  C
  C5       1.0000 0.70658  0.70659  0.88024  Biso   1.000  C
  C6       1.0000 0.70658  0.70659  0.70659  Biso   1.000  C
  C7       1.0000 0.70658  0.88024  0.70659  Biso   1.000  C
  C8       1.0000 0.88023  0.70659  0.70659  Biso   1.000  C
  C9       1.0000 0.45480  0.45480  0.93480  Biso   1.000  C
  C10      1.0000 0.45480  0.45480  0.15560  Biso   1.000  C
  C11      1.0000 0.93480  0.15560  0.45480  Biso   1.000  C
  C12      1.0000 0.15560  0.93480  0.45480  Biso   1.000  C
  C13      1.0000 0.45480  0.93480  0.15560  Biso   1.000  C
  C14      1.0000 0.45480  0.15560  0.93480  Biso   1.000  C
  C15      1.0000 0.93480  0.45480  0.45480  Biso   1.000  C
  C16      1.0000 0.15560  0.45480  0.45480  Biso   1.000  C
  C17      1.0000 0.45480  0.15560  0.45480  Biso   1.000  C
  C18      1.0000 0.45480  0.93480  0.45480  Biso   1.000  C
  C19      1.0000 0.93480  0.45480  0.15560  Biso   1.000  C
  C20      1.0000 0.15560  0.45480  0.93480  Biso   1.000  C
  C21      1.0000 0.54520  0.54520  0.06520  Biso   1.000  C
  C22      1.0000 0.54520  0.54520  0.84440  Biso   1.000  C
  C23      1.0000 0.84440  0.06520  0.54520  Biso   1.000  C
  C24      1.0000 0.06520  0.84440  0.54520  Biso   1.000  C
  C25      1.0000 0.06520  0.54520  0.84440  Biso   1.000  C
  C26      1.0000 0.84440  0.54520  0.06520  Biso   1.000  C
  C27      1.0000 0.54520  0.06520  0.54520  Biso   1.000  C
  C28      1.0000 0.54520  0.84440  0.54520  Biso   1.000  C
  C29      1.0000 0.84440  0.54520  0.54520  Biso   1.000  C
  C30      1.0000 0.06520  0.54520  0.54520  Biso   1.000  C
  C31      1.0000 0.54520  0.06520  0.84440  Biso   1.000  C
  C32      1.0000 0.54520  0.84440  0.06520  Biso   1.000  C
  C33      1.0000 0.47317  0.47317  0.96131  Biso   1.000  C
  C34      1.0000 0.47317  0.47317  0.09235  Biso   1.000  C
  C35      1.0000 0.96131  0.09235  0.47317  Biso   1.000  C
  C36      1.0000 0.09235  0.96131  0.47317  Biso   1.000  C
  C37      1.0000 0.47317  0.96131  0.09235  Biso   1.000  C
  C38      1.0000 0.47317  0.09235  0.96131  Biso   1.000  C
  C39      1.0000 0.96131  0.47317  0.47317  Biso   1.000  C
  C40      1.0000 0.09235  0.47317  0.47317  Biso   1.000  C
  C41      1.0000 0.47317  0.09235  0.47317  Biso   1.000  C
  C42      1.0000 0.47317  0.96131  0.47317  Biso   1.000  C
  C43      1.0000 0.96131  0.47317  0.09235  Biso   1.000  C
  C44      1.0000 0.09235  0.47317  0.96131  Biso   1.000  C
  C45      1.0000 0.52683  0.52683  0.03869  Biso   1.000  C
  C46      1.0000 0.52683  0.52683  0.90765  Biso   1.000  C
  C47      1.0000 0.90765  0.03869  0.52683  Biso   1.000  C
  C48      1.0000 0.03869  0.90765  0.52683  Biso   1.000  C
  C49      1.0000 0.03869  0.52683  0.90765  Biso   1.000  C
  C50      1.0000 0.90765  0.52683  0.03869  Biso   1.000  C
  C51      1.0000 0.52683  0.03869  0.52683  Biso   1.000  C
  C52      1.0000 0.52683  0.90765  0.52683  Biso   1.000  C
  C53      1.0000 0.90765  0.52683  0.52683  Biso   1.000  C
  C54      1.0000 0.03869  0.52683  0.52683  Biso   1.000  C
  C55      1.0000 0.52683  0.03869  0.90765  Biso   1.000  C
  C56      1.0000 0.52683  0.90765  0.03869  Biso   1.000  C
  C57      1.0000 0.38843  0.38843  0.11157  Biso   1.000  C
  C58      1.0000 0.44641  0.44641  0.05359  Biso   1.000  C
  C59      1.0000 0.11157  0.11157  0.38843  Biso   1.000  C
  C60      1.0000 0.05359  0.05359  0.44641  Biso   1.000  C
  C61      1.0000 0.38843  0.11157  0.11157  Biso   1.000  C
  C62      1.0000 0.44641  0.05359  0.05359  Biso   1.000  C
  C63      1.0000 0.11157  0.38843  0.38843  Biso   1.000  C
  C64      1.0000 0.05359  0.44641  0.44641  Biso   1.000  C
  C65      1.0000 0.38843  0.11157  0.38843  Biso   1.000  C
  C66      1.0000 0.44641  0.05359  0.44641  Biso   1.000  C
  C67      1.0000 0.11157  0.38843  0.11157  Biso   1.000  C
  C68      1.0000 0.05359  0.44641  0.05359  Biso   1.000  C
  C69      1.0000 0.61157  0.61157  0.88843  Biso   1.000  C
  C70      1.0000 0.55359  0.55359  0.94641  Biso   1.000  C
  C71      1.0000 0.88843  0.88843  0.61157  Biso   1.000  C
  C72      1.0000 0.94641  0.94641  0.55359  Biso   1.000  C
  C73      1.0000 0.88843  0.61157  0.88843  Biso   1.000  C
  C74      1.0000 0.94641  0.55359  0.94641  Biso   1.000  C
  C75      1.0000 0.61157  0.88843  0.61157  Biso   1.000  C
  C76      1.0000 0.55359  0.94641  0.55359  Biso   1.000  C
  C77      1.0000 0.88843  0.61157  0.61157  Biso   1.000  C
  C78      1.0000 0.94641  0.55359  0.55359  Biso   1.000  C
  C79      1.0000 0.61157  0.88843  0.88843  Biso   1.000  C
  C80      1.0000 0.55359  0.94641  0.94641  Biso   1.000  C
  C81      1.0000 0.25000  0.25000  0.25000  Biso   1.000  C
  C82      1.0000 0.75000  0.75000  0.75000  Biso   1.000  C
  C83      1.0000 0.36629  0.36629  0.07237  Biso   1.000  C
  C84      1.0000 0.36629  0.36629  0.19505  Biso   1.000  C
  C85      1.0000 0.07237  0.19505  0.36629  Biso   1.000  C
  C86      1.0000 0.19505  0.07237  0.36629  Biso   1.000  C
  C87      1.0000 0.36629  0.07237  0.19505  Biso   1.000  C
  C88      1.0000 0.36629  0.19505  0.07237  Biso   1.000  C
  C89      1.0000 0.07237  0.36629  0.36629  Biso   1.000  C
  C90      1.0000 0.19505  0.36629  0.36629  Biso   1.000  C
  C91      1.0000 0.36629  0.19505  0.36629  Biso   1.000  C
  C92      1.0000 0.36629  0.07237  0.36629  Biso   1.000  C
  C93      1.0000 0.07237  0.36629  0.19505  Biso   1.000  C
  C94      1.0000 0.19505  0.36629  0.07237  Biso   1.000  C
  C95      1.0000 0.63371  0.63371  0.92763  Biso   1.000  C
  C96      1.0000 0.63371  0.63371  0.80495  Biso   1.000  C
  C97      1.0000 0.80495  0.92763  0.63371  Biso   1.000  C
  C98      1.0000 0.92763  0.80495  0.63371  Biso   1.000  C
  C99      1.0000 0.92763  0.63371  0.80495  Biso   1.000  C
  C100     1.0000 0.80495  0.63371  0.92763  Biso   1.000  C
  C101     1.0000 0.63371  0.92763  0.63371  Biso   1.000  C
  C102     1.0000 0.63371  0.80495  0.63371  Biso   1.000  C
  C103     1.0000 0.80495  0.63371  0.63371  Biso   1.000  C
  C104     1.0000 0.92763  0.63371  0.63371  Biso   1.000  C
  C105     1.0000 0.63371  0.92763  0.80495  Biso   1.000  C
  C106     1.0000 0.63371  0.80495  0.92763  Biso   1.000  C
  O1       1.0000 0.16386  0.00000  0.00000  Biso   1.000  O
  O2       1.0000 0.57784  0.58588  0.41425  Biso   1.000  O
  O3       1.0000 0.57784  0.41154  0.41425  Biso   1.000  O
  O4       1.0000 0.16386  0.82566  0.00000  Biso   1.000  O
  O5       1.0000 0.16340  0.00034  0.82544  Biso   1.000  O
  O6       1.0000 0.98912  0.00015  0.00010  Biso   1.000  O
  O7       1.0000 0.57830  0.41120  0.58882  Biso   1.000  O
  O8       1.0000 0.75258  0.41139  0.41415  Biso   1.000  O
  O9       1.0000 0.32953  0.64351  0.85687  Biso   1.000  O
  O10      1.0000 0.32016  0.86074  0.64581  Biso   1.000  O
  O11      1.0000 0.02659  0.64459  0.15966  Biso   1.000  O
  O12      1.0000 0.80667  0.85822  0.16195  Biso   1.000  O
  O13      1.0000 0.33034  0.86021  0.15716  Biso   1.000  O
  O14      1.0000 0.41217  0.25194  0.55738  Biso   1.000  O
  O15      1.0000 0.42154  0.24873  0.76844  Biso   1.000  O
  O16      1.0000 0.71512  0.25285  0.25460  Biso   1.000  O
  O17      1.0000 0.93503  0.24886  0.25231  Biso   1.000  O
  O18      1.0000 0.41136  0.76974  0.25709  Biso   1.000  O
  O19      1.0000 0.41217  0.76803  0.55738  Biso   1.000  O
  O20      1.0000 0.42155  0.55080  0.76844  Biso   1.000  O
  O21      1.0000 0.71512  0.76695  0.25460  Biso   1.000  O
  O22      1.0000 0.93503  0.55332  0.25231  Biso   1.000  O
  O23      1.0000 0.41136  0.55133  0.25709  Biso   1.000  O
  O24      1.0000 0.32953  0.15961  0.85687  Biso   1.000  O
  O25      1.0000 0.32016  0.16281  0.64581  Biso   1.000  O
  O26      1.0000 0.02658  0.15869  0.15966  Biso   1.000  O
  O27      1.0000 0.80667  0.16268  0.16195  Biso   1.000  O
  O28      1.0000 0.33035  0.64180  0.15716  Biso   1.000  O
  O29      1.0000 0.80755  0.16150  0.85897  Biso   1.000  O
  O30      1.0000 0.02079  0.16261  0.64352  Biso   1.000  O
  O31      1.0000 0.93415  0.25004  0.55529  Biso   1.000  O
  O32      1.0000 0.72092  0.24893  0.77073  Biso   1.000  O
  O33      1.0000 0.25786  0.81716  0.82058  Biso   1.000  O
  O34      1.0000 0.31727  0.75925  0.75957  Biso   1.000  O
  O35      1.0000 0.34728  0.66914  0.79486  Biso   1.000  O
  O36      1.0000 0.33950  0.79883  0.67173  Biso   1.000  O
  O37      1.0000 0.97963  0.82034  0.09685  Biso   1.000  O
  O38      1.0000 0.92570  0.76202  0.15198  Biso   1.000  O
  O39      1.0000 0.96458  0.67071  0.17760  Biso   1.000  O
  O40      1.0000 0.83429  0.79641  0.17940  Biso   1.000  O
  O41      1.0000 0.34619  0.79830  0.17720  Biso   1.000  O
  O42      1.0000 0.48384  0.31763  0.59367  Biso   1.000  O
  O43      1.0000 0.42443  0.25811  0.65469  Biso   1.000  O
  O44      1.0000 0.39443  0.23329  0.61939  Biso   1.000  O
  O45      1.0000 0.40220  0.23209  0.74252  Biso   1.000  O
  O46      1.0000 0.76207  0.31884  0.31741  Biso   1.000  O
  O47      1.0000 0.81600  0.26172  0.26228  Biso   1.000  O
  O48      1.0000 0.77713  0.23491  0.23665  Biso   1.000  O
  O49      1.0000 0.90742  0.23211  0.23486  Biso   1.000  O
  O50      1.0000 0.39551  0.74372  0.23705  Biso   1.000  O
  O51      1.0000 0.48384  0.59438  0.59367  Biso   1.000  O
  O52      1.0000 0.42443  0.65230  0.65469  Biso   1.000  O
  O53      1.0000 0.39443  0.74240  0.61939  Biso   1.000  O
  O54      1.0000 0.40220  0.61271  0.74252  Biso   1.000  O
  O55      1.0000 0.76207  0.59120  0.31741  Biso   1.000  O
  O56      1.0000 0.81600  0.64952  0.26228  Biso   1.000  O
  O57      1.0000 0.77713  0.74083  0.23665  Biso   1.000  O
  O58      1.0000 0.90742  0.61513  0.23486  Biso   1.000  O
  O59      1.0000 0.39551  0.61324  0.23705  Biso   1.000  O
  O60      1.0000 0.25786  0.09391  0.82058  Biso   1.000  O
  O61      1.0000 0.31727  0.15343  0.75957  Biso   1.000  O
  O62      1.0000 0.34727  0.17825  0.79486  Biso   1.000  O
  O63      1.0000 0.33950  0.17945  0.67173  Biso   1.000  O
  O64      1.0000 0.97963  0.09270  0.09685  Biso   1.000  O
  O65      1.0000 0.92570  0.14982  0.15198  Biso   1.000  O
  O66      1.0000 0.96458  0.17664  0.17760  Biso   1.000  O
  O67      1.0000 0.83429  0.17943  0.17940  Biso   1.000  O
  O68      1.0000 0.34620  0.66782  0.17720  Biso   1.000  O
  O69      1.0000 0.98630  0.09471  0.81380  Biso   1.000  O
  O70      1.0000 0.92429  0.15173  0.76176  Biso   1.000  O
  O71      1.0000 0.83467  0.17885  0.79715  Biso   1.000  O
  O72      1.0000 0.95888  0.18005  0.67054  Biso   1.000  O
  O73      1.0000 0.25638  0.82213  0.08887  Biso   1.000  O
  O74      1.0000 0.31620  0.76062  0.15208  Biso   1.000  O
  O75      1.0000 0.75540  0.31683  0.60045  Biso   1.000  O
  O76      1.0000 0.81741  0.25981  0.65249  Biso   1.000  O
  O77      1.0000 0.90704  0.23269  0.61710  Biso   1.000  O
  O78      1.0000 0.78283  0.23149  0.74372  Biso   1.000  O
  O79      1.0000 0.48533  0.58941  0.32538  Biso   1.000  O
  O80      1.0000 0.42551  0.65092  0.26218  Biso   1.000  O
  O81      1.0000 0.23782  0.90230  0.77482  Biso   1.000  O
  O82      1.0000 0.23912  0.77339  0.90453  Biso   1.000  O
  O83      1.0000 0.93986  0.90328  0.07043  Biso   1.000  O
  O84      1.0000 0.06567  0.77638  0.07441  Biso   1.000  O
  O85      1.0000 0.23734  0.90428  0.07162  Biso   1.000  O
  O86      1.0000 0.50388  0.33697  0.63943  Biso   1.000  O
  O87      1.0000 0.50258  0.33907  0.50973  Biso   1.000  O
  O88      1.0000 0.80185  0.33559  0.34383  Biso   1.000  O
  O89      1.0000 0.67604  0.33848  0.33984  Biso   1.000  O
  O90      1.0000 0.50437  0.63526  0.34263  Biso   1.000  O
  O91      1.0000 0.50388  0.50924  0.63943  Biso   1.000  O
  O92      1.0000 0.50258  0.63815  0.50973  Biso   1.000  O
  O93      1.0000 0.80185  0.50826  0.34383  Biso   1.000  O
  O94      1.0000 0.67604  0.63517  0.33984  Biso   1.000  O
  O95      1.0000 0.50437  0.50726  0.34263  Biso   1.000  O
  O96      1.0000 0.23782  0.07457  0.77482  Biso   1.000  O
  O97      1.0000 0.23912  0.07247  0.90453  Biso   1.000  O
  O98      1.0000 0.93986  0.07595  0.07043  Biso   1.000  O
  O99      1.0000 0.06567  0.07306  0.07441  Biso   1.000  O
  O100     1.0000 0.23734  0.77628  0.07162  Biso   1.000  O
  O101     1.0000 0.12079  0.95633  0.95607  Biso   1.000  O
  O102     1.0000 0.06685  0.07357  0.77552  Biso   1.000  O
  O103     1.0000 0.94124  0.07586  0.89655  Biso   1.000  O
  O104     1.0000 0.62091  0.45521  0.45818  Biso   1.000  O
  O105     1.0000 0.67486  0.33797  0.63873  Biso   1.000  O
