data_image0
_cell_length_a       18.2507
_cell_length_b       18.2507
_cell_length_c       18.2507
_cell_angle_alpha    60
_cell_angle_beta     60
_cell_angle_gamma    60

_symmetry_space_group_name_H-M    "P 1"
_symmetry_int_tables_number       1

loop_
  _symmetry_equiv_pos_as_xyz
  'x, y, z'

loop_
  _atom_site_label
  _atom_site_occupancy
  _atom_site_fract_x
  _atom_site_fract_y
  _atom_site_fract_z
  _atom_site_thermal_displace_type
  _atom_site_B_iso_or_equiv
  _atom_site_type_symbol
  Zn1      1.0000 0.29354  0.29353  0.11940  Biso   1.000  Zn
  Zn2      1.0000 0.29354  0.29353  0.29353  Biso   1.000  Zn
  Zn3      1.0000 0.11941  0.29353  0.29353  Biso   1.000  Zn
  Zn4      1.0000 0.29354  0.11940  0.29353  Biso   1.000  Zn
  Zn5      1.0000 0.70646  0.70647  0.88060  Biso   1.000  Zn
  Zn6      1.0000 0.70646  0.70647  0.70647  Biso   1.000  Zn
  Zn7      1.0000 0.70646  0.88060  0.70647  Biso   1.000  Zn
  Zn8      1.0000 0.88059  0.70647  0.70647  Biso   1.000  Zn
  H1       1.0000 0.45580  0.45580  0.93620  Biso   1.000  H
  H2       1.0000 0.45580  0.45580  0.15220  Biso   1.000  H
  H3       1.0000 0.93620  0.15220  0.45580  Biso   1.000  H
  H4       1.0000 0.15220  0.93620  0.45580  Biso   1.000  H
  H5       1.0000 0.45580  0.93620  0.15220  Biso   1.000  H
  H6       1.0000 0.45580  0.15220  0.93620  Biso   1.000  H
  H7       1.0000 0.93620  0.45580  0.45580  Biso   1.000  H
  H8       1.0000 0.15220  0.45580  0.45580  Biso   1.000  H
  H9       1.0000 0.45580  0.15220  0.45580  Biso   1.000  H
  H10      1.0000 0.45580  0.93620  0.45580  Biso   1.000  H
  H11      1.0000 0.93620  0.45580  0.15220  Biso   1.000  H
  H12      1.0000 0.15220  0.45580  0.93620  Biso   1.000  H
  H13      1.0000 0.54420  0.54420  0.06380  Biso   1.000  H
  H14      1.0000 0.54420  0.54420  0.84780  Biso   1.000  H
  H15      1.0000 0.84780  0.06380  0.54420  Biso   1.000  H
  H16      1.0000 0.06380  0.84780  0.54420  Biso   1.000  H
  H17      1.0000 0.06380  0.54420  0.84780  Biso   1.000  H
  H18      1.0000 0.84780  0.54420  0.06380  Biso   1.000  H
  H19      1.0000 0.54420  0.06380  0.54420  Biso   1.000  H
  H20      1.0000 0.54420  0.84780  0.54420  Biso   1.000  H
  H21      1.0000 0.84780  0.54420  0.54420  Biso   1.000  H
  H22      1.0000 0.06380  0.54420  0.54420  Biso   1.000  H
  H23      1.0000 0.54420  0.06380  0.84780  Biso   1.000  H
  H24      1.0000 0.54420  0.84780  0.06380  Biso   1.000  H
  C1       1.0000 0.47349  0.47349  0.96297  Biso   1.000  C
  C2       1.0000 0.47349  0.47349  0.09005  Biso   1.000  C
  C3       1.0000 0.96297  0.09005  0.47349  Biso   1.000  C
  C4       1.0000 0.09005  0.96297  0.47349  Biso   1.000  C
  C5       1.0000 0.47349  0.96297  0.09005  Biso   1.000  C
  C6       1.0000 0.47349  0.09005  0.96297  Biso   1.000  C
  C7       1.0000 0.96297  0.47349  0.47349  Biso   1.000  C
  C8       1.0000 0.09005  0.47349  0.47349  Biso   1.000  C
  C9       1.0000 0.47349  0.09005  0.47349  Biso   1.000  C
  C10      1.0000 0.47349  0.96297  0.47349  Biso   1.000  C
  C11      1.0000 0.96297  0.47349  0.09005  Biso   1.000  C
  C12      1.0000 0.09005  0.47349  0.96297  Biso   1.000  C
  C13      1.0000 0.52651  0.52651  0.03703  Biso   1.000  C
  C14      1.0000 0.52651  0.52651  0.90995  Biso   1.000  C
  C15      1.0000 0.90995  0.03703  0.52651  Biso   1.000  C
  C16      1.0000 0.03703  0.90995  0.52651  Biso   1.000  C
  C17      1.0000 0.03703  0.52651  0.90995  Biso   1.000  C
  C18      1.0000 0.90995  0.52651  0.03703  Biso   1.000  C
  C19      1.0000 0.52651  0.03703  0.52651  Biso   1.000  C
  C20      1.0000 0.52651  0.90995  0.52651  Biso   1.000  C
  C21      1.0000 0.90995  0.52651  0.52651  Biso   1.000  C
  C22      1.0000 0.03703  0.52651  0.52651  Biso   1.000  C
  C23      1.0000 0.52651  0.03703  0.90995  Biso   1.000  C
  C24      1.0000 0.52651  0.90995  0.03703  Biso   1.000  C
  C25      1.0000 0.38859  0.38859  0.11141  Biso   1.000  C
  C26      1.0000 0.44630  0.44630  0.05370  Biso   1.000  C
  C27      1.0000 0.11141  0.11141  0.38859  Biso   1.000  C
  C28      1.0000 0.05370  0.05370  0.44630  Biso   1.000  C
  C29      1.0000 0.38859  0.11141  0.11141  Biso   1.000  C
  C30      1.0000 0.44630  0.05370  0.05370  Biso   1.000  C
  C31      1.0000 0.11141  0.38859  0.38859  Biso   1.000  C
  C32      1.0000 0.05370  0.44630  0.44630  Biso   1.000  C
  C33      1.0000 0.38859  0.11141  0.38859  Biso   1.000  C
  C34      1.0000 0.44630  0.05370  0.44630  Biso   1.000  C
  C35      1.0000 0.11141  0.38859  0.11141  Biso   1.000  C
  C36      1.0000 0.05370  0.44630  0.05370  Biso   1.000  C
  C37      1.0000 0.61141  0.61141  0.88859  Biso   1.000  C
  C38      1.0000 0.55370  0.55370  0.94630  Biso   1.000  C
  C39      1.0000 0.88859  0.88859  0.61141  Biso   1.000  C
  C40      1.0000 0.94630  0.94630  0.55370  Biso   1.000  C
  C41      1.0000 0.88859  0.61141  0.88859  Biso   1.000  C
  C42      1.0000 0.94630  0.55370  0.94630  Biso   1.000  C
  C43      1.0000 0.61141  0.88859  0.61141  Biso   1.000  C
  C44      1.0000 0.55370  0.94630  0.55370  Biso   1.000  C
  C45      1.0000 0.88859  0.61141  0.61141  Biso   1.000  C
  C46      1.0000 0.94630  0.55370  0.55370  Biso   1.000  C
  C47      1.0000 0.61141  0.88859  0.88859  Biso   1.000  C
  C48      1.0000 0.55370  0.94630  0.94630  Biso   1.000  C
  O1       1.0000 0.25000  0.25000  0.25000  Biso   1.000  O
  O2       1.0000 0.75000  0.75000  0.75000  Biso   1.000  O
  O3       1.0000 0.36605  0.36605  0.07321  Biso   1.000  O
  O4       1.0000 0.36605  0.36605  0.19469  Biso   1.000  O
  O5       1.0000 0.07321  0.19469  0.36605  Biso   1.000  O
  O6       1.0000 0.19469  0.07321  0.36605  Biso   1.000  O
  O7       1.0000 0.36605  0.07321  0.19469  Biso   1.000  O
  O8       1.0000 0.36605  0.19469  0.07321  Biso   1.000  O
  O9       1.0000 0.07321  0.36605  0.36605  Biso   1.000  O
  O10      1.0000 0.19469  0.36605  0.36605  Biso   1.000  O
  O11      1.0000 0.36605  0.19469  0.36605  Biso   1.000  O
  O12      1.0000 0.36605  0.07321  0.36605  Biso   1.000  O
  O13      1.0000 0.07321  0.36605  0.19469  Biso   1.000  O
  O14      1.0000 0.19469  0.36605  0.07321  Biso   1.000  O
  O15      1.0000 0.63395  0.63395  0.92679  Biso   1.000  O
  O16      1.0000 0.63395  0.63395  0.80531  Biso   1.000  O
  O17      1.0000 0.80531  0.92679  0.63395  Biso   1.000  O
  O18      1.0000 0.92679  0.80531  0.63395  Biso   1.000  O
  O19      1.0000 0.92679  0.63395  0.80531  Biso   1.000  O
  O20      1.0000 0.80531  0.63395  0.92679  Biso   1.000  O
  O21      1.0000 0.63395  0.92679  0.63395  Biso   1.000  O
  O22      1.0000 0.63395  0.80531  0.63395  Biso   1.000  O
  O23      1.0000 0.80531  0.63395  0.63395  Biso   1.000  O
  O24      1.0000 0.92679  0.63395  0.63395  Biso   1.000  O
  O25      1.0000 0.63395  0.92679  0.80531  Biso   1.000  O
  O26      1.0000 0.63395  0.80531  0.92679  Biso   1.000  O
  Zn9      1.0000 0.99425  0.97458  0.87239  Biso   1.000  Zn
  Zn10     1.0000 0.99430  0.14692  0.87234  Biso   1.000  Zn
  Zn11     1.0000 0.16663  0.97458  0.87239  Biso   1.000  Zn
  Zn12     1.0000 0.99430  0.97453  0.04472  Biso   1.000  Zn
  Zn13     1.0000 0.57774  0.56348  0.46129  Biso   1.000  Zn
  Zn14     1.0000 0.57769  0.39114  0.46134  Biso   1.000  Zn
  Zn15     1.0000 0.40536  0.56348  0.46129  Biso   1.000  Zn
  Zn16     1.0000 0.57769  0.56352  0.28896  Biso   1.000  Zn
  C49      1.0000 0.81481  0.17437  0.69390  Biso   1.000  C
  C50      1.0000 0.19430  0.79588  0.69190  Biso   1.000  C
  C51      1.0000 0.81421  0.79688  0.07219  Biso   1.000  C
  C52      1.0000 0.81583  0.31056  0.69290  Biso   1.000  C
  C53      1.0000 0.81383  0.31157  0.07239  Biso   1.000  C
  C54      1.0000 0.19411  0.31037  0.69230  Biso   1.000  C
  C55      1.0000 0.32477  0.79609  0.07218  Biso   1.000  C
  C56      1.0000 0.32577  0.79409  0.69369  Biso   1.000  C
  C57      1.0000 0.32457  0.17438  0.69468  Biso   1.000  C
  C58      1.0000 0.18857  0.79509  0.20838  Biso   1.000  C
  C59      1.0000 0.81008  0.17458  0.20938  Biso   1.000  C
  C60      1.0000 0.81108  0.79448  0.20819  Biso   1.000  C
  C61      1.0000 0.75718  0.36369  0.63978  Biso   1.000  C
  C62      1.0000 0.37769  0.74218  0.64178  Biso   1.000  C
  C63      1.0000 0.75778  0.74118  0.26149  Biso   1.000  C
  C64      1.0000 0.75616  0.22750  0.64077  Biso   1.000  C
  C65      1.0000 0.75816  0.22649  0.26129  Biso   1.000  C
  C66      1.0000 0.37788  0.22769  0.64138  Biso   1.000  C
  C67      1.0000 0.24722  0.74197  0.26150  Biso   1.000  C
  C68      1.0000 0.24622  0.74397  0.63999  Biso   1.000  C
  C69      1.0000 0.24742  0.36368  0.63899  Biso   1.000  C
  C70      1.0000 0.38342  0.74297  0.12530  Biso   1.000  C
  C71      1.0000 0.76191  0.36348  0.12430  Biso   1.000  C
  C72      1.0000 0.76091  0.74357  0.12549  Biso   1.000  C
  C73      1.0000 0.84225  0.21277  0.72034  Biso   1.000  C
  C74      1.0000 0.90061  0.15441  0.77870  Biso   1.000  C
  C75      1.0000 0.23249  0.82254  0.11057  Biso   1.000  C
  C76      1.0000 0.17413  0.88089  0.05222  Biso   1.000  C
  C77      1.0000 0.72974  0.32529  0.61334  Biso   1.000  C
  C78      1.0000 0.67138  0.38364  0.55498  Biso   1.000  C
  C79      1.0000 0.33950  0.71552  0.22311  Biso   1.000  C
  C80      1.0000 0.39786  0.65717  0.28146  Biso   1.000  C
  C81      1.0000 0.84206  0.82234  0.11077  Biso   1.000  C
  C82      1.0000 0.90013  0.88041  0.05270  Biso   1.000  C
  C83      1.0000 0.23268  0.21297  0.72014  Biso   1.000  C
  C84      1.0000 0.17461  0.15489  0.77822  Biso   1.000  C
  C85      1.0000 0.72993  0.71572  0.22291  Biso   1.000  C
  C86      1.0000 0.67186  0.65764  0.28098  Biso   1.000  C
  C87      1.0000 0.33931  0.32509  0.61354  Biso   1.000  C
  C88      1.0000 0.39738  0.38317  0.55546  Biso   1.000  C
  C89      1.0000 0.23289  0.82213  0.71994  Biso   1.000  C
  C90      1.0000 0.17481  0.88021  0.77802  Biso   1.000  C
  C91      1.0000 0.84185  0.21317  0.11097  Biso   1.000  C
  C92      1.0000 0.89993  0.15509  0.05289  Biso   1.000  C
  C93      1.0000 0.33910  0.71592  0.61373  Biso   1.000  C
  C94      1.0000 0.39718  0.65784  0.55566  Biso   1.000  C
  C95      1.0000 0.73014  0.32489  0.22271  Biso   1.000  C
  C96      1.0000 0.67206  0.38297  0.28078  Biso   1.000  C
  O27      1.0000 0.92308  0.07064  0.79958  Biso   1.000  O
  O28      1.0000 0.92116  0.90337  0.96928  Biso   1.000  O
  O29      1.0000 0.08994  0.90301  0.80000  Biso   1.000  O
  O30      1.0000 0.92149  0.19483  0.80117  Biso   1.000  O
  O31      1.0000 0.09119  0.19433  0.79924  Biso   1.000  O
  O32      1.0000 0.92191  0.19519  0.96803  Biso   1.000  O
  O33      1.0000 0.21455  0.90178  0.96844  Biso   1.000  O
  O34      1.0000 0.21405  0.07147  0.80117  Biso   1.000  O
  O35      1.0000 0.21491  0.90219  0.80082  Biso   1.000  O
  O36      1.0000 0.09036  0.90337  0.09263  Biso   1.000  O
  O37      1.0000 0.92309  0.90144  0.09214  Biso   1.000  O
  O38      1.0000 0.92273  0.07022  0.09299  Biso   1.000  O
  O39      1.0000 0.64891  0.46742  0.53410  Biso   1.000  O
  O40      1.0000 0.65083  0.63469  0.36440  Biso   1.000  O
  O41      1.0000 0.48205  0.63505  0.53368  Biso   1.000  O
  O42      1.0000 0.65050  0.34323  0.53251  Biso   1.000  O
  O43      1.0000 0.48080  0.34373  0.53444  Biso   1.000  O
  O44      1.0000 0.65008  0.34287  0.36565  Biso   1.000  O
  O45      1.0000 0.35744  0.63628  0.36524  Biso   1.000  O
  O46      1.0000 0.35794  0.46658  0.53251  Biso   1.000  O
  O47      1.0000 0.35708  0.63587  0.53286  Biso   1.000  O
  O48      1.0000 0.48163  0.63469  0.24105  Biso   1.000  O
  O49      1.0000 0.64890  0.63662  0.24154  Biso   1.000  O
  O50      1.0000 0.64926  0.46783  0.24069  Biso   1.000  O
  O51      1.0000 0.03737  0.01765  0.91546  Biso   1.000  O
  O52      1.0000 0.53462  0.52040  0.41822  Biso   1.000  O
  H25      1.0000 0.11813  0.81870  0.71325  Biso   1.000  H
  H26      1.0000 0.35778  0.81544  0.71651  Biso   1.000  H
  H27      1.0000 0.45386  0.71935  0.62043  Biso   1.000  H
  H28      1.0000 0.21421  0.72262  0.61717  Biso   1.000  H
  H29      1.0000 0.35658  0.09821  0.71776  Biso   1.000  H
  H30      1.0000 0.45404  0.19568  0.62029  Biso   1.000  H
  H31      1.0000 0.83531  0.81995  0.99602  Biso   1.000  H
  H32      1.0000 0.73784  0.72248  0.09349  Biso   1.000  H
  H33      1.0000 0.83832  0.34257  0.71457  Biso   1.000  H
  H34      1.0000 0.83518  0.34357  0.99621  Biso   1.000  H
  H35      1.0000 0.45959  0.72130  0.09329  Biso   1.000  H
  H36      1.0000 0.73909  0.43966  0.09230  Biso   1.000  H
  H37      1.0000 0.11795  0.34237  0.71339  Biso   1.000  H
  H38      1.0000 0.21541  0.43984  0.61592  Biso   1.000  H
  H39      1.0000 0.83415  0.81558  0.24019  Biso   1.000  H
  H40      1.0000 0.73668  0.71811  0.33766  Biso   1.000  H
  H41      1.0000 0.21521  0.71947  0.33768  Biso   1.000  H
  H42      1.0000 0.83290  0.09840  0.24138  Biso   1.000  H
  H43      1.0000 0.73681  0.19449  0.33747  Biso   1.000  H
  H44      1.0000 0.11240  0.81676  0.24039  Biso   1.000  H
  H45      1.0000 0.73367  0.19548  0.61911  Biso   1.000  H
  H46      1.0000 0.83648  0.09819  0.71639  Biso   1.000  H
  H47      1.0000 0.73551  0.43986  0.61729  Biso   1.000  H
