data_image0
_cell_length_a       18.2507
_cell_length_b       18.2507
_cell_length_c       18.2507
_cell_angle_alpha    60
_cell_angle_beta     60
_cell_angle_gamma    60

_symmetry_space_group_name_H-M    "P 1"
_symmetry_int_tables_number       1

loop_
  _symmetry_equiv_pos_as_xyz
  'x, y, z'

loop_
  _atom_site_label
  _atom_site_occupancy
  _atom_site_fract_x
  _atom_site_fract_y
  _atom_site_fract_z
  _atom_site_thermal_displace_type
  _atom_site_B_iso_or_equiv
  _atom_site_type_symbol
  C1       1.0000 0.29354  0.29353  0.11940  Biso   1.000  C
  C2       1.0000 0.29354  0.29353  0.29353  Biso   1.000  C
  C3       1.0000 0.11941  0.29353  0.29353  Biso   1.000  C
  C4       1.0000 0.29354  0.11940  0.29353  Biso   1.000  C
  C5       1.0000 0.70646  0.70647  0.88060  Biso   1.000  C
  C6       1.0000 0.70646  0.70647  0.70647  Biso   1.000  C
  C7       1.0000 0.70646  0.88060  0.70647  Biso   1.000  C
  C8       1.0000 0.88059  0.70647  0.70647  Biso   1.000  C
  C9       1.0000 0.45580  0.45580  0.93620  Biso   1.000  C
  C10      1.0000 0.45580  0.45580  0.15220  Biso   1.000  C
  C11      1.0000 0.93620  0.15220  0.45580  Biso   1.000  C
  C12      1.0000 0.15220  0.93620  0.45580  Biso   1.000  C
  C13      1.0000 0.45580  0.93620  0.15220  Biso   1.000  C
  C14      1.0000 0.45580  0.15220  0.93620  Biso   1.000  C
  C15      1.0000 0.93620  0.45580  0.45580  Biso   1.000  C
  C16      1.0000 0.15220  0.45580  0.45580  Biso   1.000  C
  C17      1.0000 0.45580  0.15220  0.45580  Biso   1.000  C
  C18      1.0000 0.45580  0.93620  0.45580  Biso   1.000  C
  C19      1.0000 0.93620  0.45580  0.15220  Biso   1.000  C
  C20      1.0000 0.15220  0.45580  0.93620  Biso   1.000  C
  C21      1.0000 0.54420  0.54420  0.06380  Biso   1.000  C
  C22      1.0000 0.54420  0.54420  0.84780  Biso   1.000  C
  C23      1.0000 0.84780  0.06380  0.54420  Biso   1.000  C
  C24      1.0000 0.06380  0.84780  0.54420  Biso   1.000  C
  C25      1.0000 0.06380  0.54420  0.84780  Biso   1.000  C
  C26      1.0000 0.84780  0.54420  0.06380  Biso   1.000  C
  C27      1.0000 0.54420  0.06380  0.54420  Biso   1.000  C
  C28      1.0000 0.54420  0.84780  0.54420  Biso   1.000  C
  C29      1.0000 0.84780  0.54420  0.54420  Biso   1.000  C
  C30      1.0000 0.06380  0.54420  0.54420  Biso   1.000  C
  C31      1.0000 0.54420  0.06380  0.84780  Biso   1.000  C
  C32      1.0000 0.54420  0.84780  0.06380  Biso   1.000  C
  C33      1.0000 0.47349  0.47349  0.96297  Biso   1.000  C
  C34      1.0000 0.47349  0.47349  0.09005  Biso   1.000  C
  C35      1.0000 0.96297  0.09005  0.47349  Biso   1.000  C
  C36      1.0000 0.09005  0.96297  0.47349  Biso   1.000  C
  C37      1.0000 0.47349  0.96297  0.09005  Biso   1.000  C
  C38      1.0000 0.47349  0.09005  0.96297  Biso   1.000  C
  C39      1.0000 0.96297  0.47349  0.47349  Biso   1.000  C
  C40      1.0000 0.09005  0.47349  0.47349  Biso   1.000  C
  C41      1.0000 0.47349  0.09005  0.47349  Biso   1.000  C
  C42      1.0000 0.47349  0.96297  0.47349  Biso   1.000  C
  C43      1.0000 0.96297  0.47349  0.09005  Biso   1.000  C
  C44      1.0000 0.09005  0.47349  0.96297  Biso   1.000  C
  C45      1.0000 0.52651  0.52651  0.03703  Biso   1.000  C
  C46      1.0000 0.52651  0.52651  0.90995  Biso   1.000  C
  C47      1.0000 0.90995  0.03703  0.52651  Biso   1.000  C
  C48      1.0000 0.03703  0.90995  0.52651  Biso   1.000  C
  C49      1.0000 0.03703  0.52651  0.90995  Biso   1.000  C
  C50      1.0000 0.90995  0.52651  0.03703  Biso   1.000  C
  C51      1.0000 0.52651  0.03703  0.52651  Biso   1.000  C
  C52      1.0000 0.52651  0.90995  0.52651  Biso   1.000  C
  C53      1.0000 0.90995  0.52651  0.52651  Biso   1.000  C
  C54      1.0000 0.03703  0.52651  0.52651  Biso   1.000  C
  C55      1.0000 0.52651  0.03703  0.90995  Biso   1.000  C
  C56      1.0000 0.52651  0.90995  0.03703  Biso   1.000  C
  C57      1.0000 0.38859  0.38859  0.11141  Biso   1.000  C
  C58      1.0000 0.44630  0.44630  0.05370  Biso   1.000  C
  C59      1.0000 0.11141  0.11141  0.38859  Biso   1.000  C
  C60      1.0000 0.05370  0.05370  0.44630  Biso   1.000  C
  C61      1.0000 0.38859  0.11141  0.11141  Biso   1.000  C
  C62      1.0000 0.44630  0.05370  0.05370  Biso   1.000  C
  C63      1.0000 0.11141  0.38859  0.38859  Biso   1.000  C
  C64      1.0000 0.05370  0.44630  0.44630  Biso   1.000  C
  C65      1.0000 0.38859  0.11141  0.38859  Biso   1.000  C
  C66      1.0000 0.44630  0.05370  0.44630  Biso   1.000  C
  C67      1.0000 0.11141  0.38859  0.11141  Biso   1.000  C
  C68      1.0000 0.05370  0.44630  0.05370  Biso   1.000  C
  C69      1.0000 0.61141  0.61141  0.88859  Biso   1.000  C
  C70      1.0000 0.55370  0.55370  0.94630  Biso   1.000  C
  C71      1.0000 0.88859  0.88859  0.61141  Biso   1.000  C
  C72      1.0000 0.94630  0.94630  0.55370  Biso   1.000  C
  C73      1.0000 0.88859  0.61141  0.88859  Biso   1.000  C
  C74      1.0000 0.94630  0.55370  0.94630  Biso   1.000  C
  C75      1.0000 0.61141  0.88859  0.61141  Biso   1.000  C
  C76      1.0000 0.55370  0.94630  0.55370  Biso   1.000  C
  C77      1.0000 0.88859  0.61141  0.61141  Biso   1.000  C
  C78      1.0000 0.94630  0.55370  0.55370  Biso   1.000  C
  C79      1.0000 0.61141  0.88859  0.88859  Biso   1.000  C
  C80      1.0000 0.55370  0.94630  0.94630  Biso   1.000  C
  C81      1.0000 0.25000  0.25000  0.25000  Biso   1.000  C
  C82      1.0000 0.75000  0.75000  0.75000  Biso   1.000  C
  C83      1.0000 0.36605  0.36605  0.07321  Biso   1.000  C
  C84      1.0000 0.36605  0.36605  0.19469  Biso   1.000  C
  C85      1.0000 0.07321  0.19469  0.36605  Biso   1.000  C
  C86      1.0000 0.19469  0.07321  0.36605  Biso   1.000  C
  C87      1.0000 0.36605  0.07321  0.19469  Biso   1.000  C
  C88      1.0000 0.36605  0.19469  0.07321  Biso   1.000  C
  C89      1.0000 0.07321  0.36605  0.36605  Biso   1.000  C
  C90      1.0000 0.19469  0.36605  0.36605  Biso   1.000  C
  C91      1.0000 0.36605  0.19469  0.36605  Biso   1.000  C
  C92      1.0000 0.36605  0.07321  0.36605  Biso   1.000  C
  C93      1.0000 0.07321  0.36605  0.19469  Biso   1.000  C
  C94      1.0000 0.19469  0.36605  0.07321  Biso   1.000  C
  C95      1.0000 0.63395  0.63395  0.92679  Biso   1.000  C
  C96      1.0000 0.63395  0.63395  0.80531  Biso   1.000  C
  C97      1.0000 0.80531  0.92679  0.63395  Biso   1.000  C
  C98      1.0000 0.92679  0.80531  0.63395  Biso   1.000  C
  C99      1.0000 0.92679  0.63395  0.80531  Biso   1.000  C
  C100     1.0000 0.80531  0.63395  0.92679  Biso   1.000  C
  C101     1.0000 0.63395  0.92679  0.63395  Biso   1.000  C
  C102     1.0000 0.63395  0.80531  0.63395  Biso   1.000  C
  C103     1.0000 0.80531  0.63395  0.63395  Biso   1.000  C
  C104     1.0000 0.92679  0.63395  0.63395  Biso   1.000  C
  C105     1.0000 0.63395  0.92679  0.80531  Biso   1.000  C
  C106     1.0000 0.63395  0.80531  0.92679  Biso   1.000  C
  O1       1.0000 0.00551  0.84103  0.13421  Biso   1.000  O
  O2       1.0000 0.00551  0.01453  0.13421  Biso   1.000  O
  O3       1.0000 0.83201  0.01453  0.13421  Biso   1.000  O
  O4       1.0000 0.00551  0.01453  0.96071  Biso   1.000  O
  O5       1.0000 0.42141  0.42689  0.54658  Biso   1.000  O
  O6       1.0000 0.42141  0.60040  0.54658  Biso   1.000  O
  O7       1.0000 0.59492  0.42689  0.54658  Biso   1.000  O
  O8       1.0000 0.42141  0.42689  0.72008  Biso   1.000  O
  O9       1.0000 0.87458  0.65680  0.29179  Biso   1.000  O
  O10      1.0000 0.16309  0.17211  0.00328  Biso   1.000  O
  O11      1.0000 0.64778  0.88360  0.29179  Biso   1.000  O
  O12      1.0000 0.16309  0.17211  0.77648  Biso   1.000  O
  O13      1.0000 0.64778  0.17211  0.00328  Biso   1.000  O
  O14      1.0000 0.16309  0.88360  0.29179  Biso   1.000  O
  O15      1.0000 0.87458  0.17211  0.77648  Biso   1.000  O
  O16      1.0000 0.16309  0.65680  0.29179  Biso   1.000  O
  O17      1.0000 0.16309  0.88360  0.77648  Biso   1.000  O
  O18      1.0000 0.87458  0.17211  0.29179  Biso   1.000  O
  O19      1.0000 0.16309  0.65680  0.00328  Biso   1.000  O
  O20      1.0000 0.64778  0.17211  0.29179  Biso   1.000  O
  O21      1.0000 0.55234  0.26932  0.38900  Biso   1.000  O
  O22      1.0000 0.26384  0.78463  0.67751  Biso   1.000  O
  O23      1.0000 0.77915  0.26932  0.38900  Biso   1.000  O
  O24      1.0000 0.26384  0.55783  0.90431  Biso   1.000  O
  O25      1.0000 0.77915  0.26932  0.67751  Biso   1.000  O
  O26      1.0000 0.26384  0.78463  0.38900  Biso   1.000  O
  O27      1.0000 0.55235  0.26932  0.90431  Biso   1.000  O
  O28      1.0000 0.26384  0.55783  0.38900  Biso   1.000  O
  O29      1.0000 0.26384  0.26932  0.90431  Biso   1.000  O
  O30      1.0000 0.55234  0.78463  0.38900  Biso   1.000  O
  O31      1.0000 0.26384  0.26932  0.67751  Biso   1.000  O
  O32      1.0000 0.77915  0.55783  0.38900  Biso   1.000  O
  O33      1.0000 0.80406  0.68245  0.31423  Biso   1.000  O
  O34      1.0000 0.18553  0.19455  0.93276  Biso   1.000  O
  O35      1.0000 0.67343  0.81308  0.31423  Biso   1.000  O
  O36      1.0000 0.18553  0.19455  0.80213  Biso   1.000  O
  O37      1.0000 0.67343  0.19455  0.93276  Biso   1.000  O
  O38      1.0000 0.18553  0.81308  0.31423  Biso   1.000  O
  O39      1.0000 0.80406  0.19455  0.80213  Biso   1.000  O
  O40      1.0000 0.18553  0.68245  0.31423  Biso   1.000  O
  O41      1.0000 0.18553  0.81308  0.80213  Biso   1.000  O
  O42      1.0000 0.80406  0.19455  0.31423  Biso   1.000  O
  O43      1.0000 0.18553  0.68245  0.93276  Biso   1.000  O
  O44      1.0000 0.67343  0.19455  0.31423  Biso   1.000  O
  O45      1.0000 0.62287  0.24688  0.36656  Biso   1.000  O
  O46      1.0000 0.24140  0.75898  0.74803  Biso   1.000  O
  O47      1.0000 0.75350  0.24688  0.36656  Biso   1.000  O
  O48      1.0000 0.24140  0.62835  0.87866  Biso   1.000  O
  O49      1.0000 0.75350  0.24688  0.74803  Biso   1.000  O
  O50      1.0000 0.24140  0.75898  0.36656  Biso   1.000  O
  O51      1.0000 0.62287  0.24688  0.87866  Biso   1.000  O
  O52      1.0000 0.24140  0.62835  0.36656  Biso   1.000  O
  O53      1.0000 0.24140  0.24688  0.87866  Biso   1.000  O
  O54      1.0000 0.62287  0.75898  0.36656  Biso   1.000  O
  O55      1.0000 0.24140  0.24688  0.74803  Biso   1.000  O
  O56      1.0000 0.75350  0.62835  0.36656  Biso   1.000  O
  O57      1.0000 0.82259  0.83161  0.23038  Biso   1.000  O
  O58      1.0000 0.76599  0.77501  0.28698  Biso   1.000  O
  O59      1.0000 0.10168  0.11070  0.95129  Biso   1.000  O
  O60      1.0000 0.15828  0.16730  0.89469  Biso   1.000  O
  O61      1.0000 0.82259  0.11070  0.95129  Biso   1.000  O
  O62      1.0000 0.76599  0.16730  0.89469  Biso   1.000  O
  O63      1.0000 0.10168  0.83161  0.23038  Biso   1.000  O
  O64      1.0000 0.15828  0.77501  0.28698  Biso   1.000  O
  O65      1.0000 0.10168  0.83161  0.95129  Biso   1.000  O
  O66      1.0000 0.15828  0.77501  0.89469  Biso   1.000  O
  O67      1.0000 0.82259  0.11070  0.23038  Biso   1.000  O
  O68      1.0000 0.76599  0.16730  0.28698  Biso   1.000  O
  O69      1.0000 0.60434  0.33072  0.45041  Biso   1.000  O
  O70      1.0000 0.66094  0.27412  0.39381  Biso   1.000  O
  O71      1.0000 0.32524  0.60982  0.72950  Biso   1.000  O
  O72      1.0000 0.26864  0.66642  0.78610  Biso   1.000  O
  O73      1.0000 0.60434  0.33072  0.72950  Biso   1.000  O
  O74      1.0000 0.66094  0.27412  0.78610  Biso   1.000  O
  O75      1.0000 0.32524  0.60982  0.45041  Biso   1.000  O
  O76      1.0000 0.26864  0.66642  0.39381  Biso   1.000  O
  O77      1.0000 0.32524  0.33072  0.72950  Biso   1.000  O
  O78      1.0000 0.26864  0.27412  0.78610  Biso   1.000  O
  O79      1.0000 0.60434  0.60982  0.45041  Biso   1.000  O
  O80      1.0000 0.66094  0.66642  0.39381  Biso   1.000  O
  O81      1.0000 0.96214  0.97116  0.09084  Biso   1.000  O
  O82      1.0000 0.46479  0.47027  0.58995  Biso   1.000  O
  O83      1.0000 0.90734  0.79414  0.20674  Biso   1.000  O
  O84      1.0000 0.07804  0.08706  0.03604  Biso   1.000  O
  O85      1.0000 0.78512  0.91636  0.20674  Biso   1.000  O
  O86      1.0000 0.07804  0.08706  0.91382  Biso   1.000  O
  O87      1.0000 0.78512  0.08706  0.03604  Biso   1.000  O
  O88      1.0000 0.07804  0.91636  0.20674  Biso   1.000  O
  O89      1.0000 0.90734  0.08706  0.91382  Biso   1.000  O
  O90      1.0000 0.07804  0.79414  0.20674  Biso   1.000  O
  O91      1.0000 0.07804  0.91636  0.91382  Biso   1.000  O
  O92      1.0000 0.90734  0.08706  0.20674  Biso   1.000  O
  O93      1.0000 0.07804  0.79414  0.03604  Biso   1.000  O
  O94      1.0000 0.78512  0.08706  0.20674  Biso   1.000  O
  O95      1.0000 0.51959  0.35437  0.47405  Biso   1.000  O
  O96      1.0000 0.34889  0.64728  0.64475  Biso   1.000  O
  O97      1.0000 0.64180  0.35437  0.47405  Biso   1.000  O
  O98      1.0000 0.34889  0.52507  0.76696  Biso   1.000  O
  O99      1.0000 0.64180  0.35437  0.64475  Biso   1.000  O
  O100     1.0000 0.34889  0.64728  0.47405  Biso   1.000  O
  O101     1.0000 0.51959  0.35437  0.76696  Biso   1.000  O
  O102     1.0000 0.34889  0.52507  0.47405  Biso   1.000  O
  O103     1.0000 0.34889  0.35437  0.76696  Biso   1.000  O
  O104     1.0000 0.51959  0.64728  0.47405  Biso   1.000  O
  O105     1.0000 0.34889  0.35437  0.64475  Biso   1.000  O
