data_image0
_cell_length_a       18.3017
_cell_length_b       18.3017
_cell_length_c       18.3017
_cell_angle_alpha    60
_cell_angle_beta     60
_cell_angle_gamma    60

_symmetry_space_group_name_H-M    "P 1"
_symmetry_int_tables_number       1

loop_
  _symmetry_equiv_pos_as_xyz
  'x, y, z'

loop_
  _atom_site_label
  _atom_site_occupancy
  _atom_site_fract_x
  _atom_site_fract_y
  _atom_site_fract_z
  _atom_site_thermal_displace_type
  _atom_site_B_iso_or_equiv
  _atom_site_type_symbol
  C1       1.0000 0.29342  0.29343  0.11972  Biso   1.000  C
  C2       1.0000 0.29343  0.29342  0.29343  Biso   1.000  C
  C3       1.0000 0.11972  0.29343  0.29342  Biso   1.000  C
  C4       1.0000 0.29343  0.11972  0.29343  Biso   1.000  C
  C5       1.0000 0.70657  0.70658  0.88028  Biso   1.000  C
  C6       1.0000 0.70657  0.70658  0.70657  Biso   1.000  C
  C7       1.0000 0.70658  0.88028  0.70657  Biso   1.000  C
  C8       1.0000 0.88029  0.70657  0.70657  Biso   1.000  C
  C9       1.0000 0.45510  0.45510  0.93470  Biso   1.000  C
  C10      1.0000 0.45510  0.45510  0.15510  Biso   1.000  C
  C11      1.0000 0.93470  0.15510  0.45510  Biso   1.000  C
  C12      1.0000 0.15510  0.93470  0.45510  Biso   1.000  C
  C13      1.0000 0.45510  0.93470  0.15510  Biso   1.000  C
  C14      1.0000 0.45510  0.15510  0.93470  Biso   1.000  C
  C15      1.0000 0.93470  0.45510  0.45510  Biso   1.000  C
  C16      1.0000 0.15510  0.45510  0.45510  Biso   1.000  C
  C17      1.0000 0.45510  0.15510  0.45510  Biso   1.000  C
  C18      1.0000 0.45510  0.93470  0.45510  Biso   1.000  C
  C19      1.0000 0.93470  0.45510  0.15510  Biso   1.000  C
  C20      1.0000 0.15510  0.45510  0.93470  Biso   1.000  C
  C21      1.0000 0.54490  0.54490  0.06530  Biso   1.000  C
  C22      1.0000 0.54490  0.54490  0.84490  Biso   1.000  C
  C23      1.0000 0.84490  0.06530  0.54490  Biso   1.000  C
  C24      1.0000 0.06530  0.84490  0.54490  Biso   1.000  C
  C25      1.0000 0.06530  0.54490  0.84490  Biso   1.000  C
  C26      1.0000 0.84490  0.54490  0.06530  Biso   1.000  C
  C27      1.0000 0.54490  0.06530  0.54490  Biso   1.000  C
  C28      1.0000 0.54490  0.84490  0.54490  Biso   1.000  C
  C29      1.0000 0.84490  0.54490  0.54490  Biso   1.000  C
  C30      1.0000 0.06530  0.54490  0.54490  Biso   1.000  C
  C31      1.0000 0.54490  0.06530  0.84490  Biso   1.000  C
  C32      1.0000 0.54490  0.84490  0.06530  Biso   1.000  C
  C33      1.0000 0.47334  0.47334  0.96156  Biso   1.000  C
  C34      1.0000 0.47334  0.47334  0.09176  Biso   1.000  C
  C35      1.0000 0.96156  0.09176  0.47334  Biso   1.000  C
  C36      1.0000 0.09176  0.96156  0.47334  Biso   1.000  C
  C37      1.0000 0.47334  0.96156  0.09176  Biso   1.000  C
  C38      1.0000 0.47334  0.09176  0.96156  Biso   1.000  C
  C39      1.0000 0.96156  0.47334  0.47334  Biso   1.000  C
  C40      1.0000 0.09176  0.47334  0.47334  Biso   1.000  C
  C41      1.0000 0.47334  0.09176  0.47334  Biso   1.000  C
  C42      1.0000 0.47334  0.96156  0.47334  Biso   1.000  C
  C43      1.0000 0.96156  0.47334  0.09176  Biso   1.000  C
  C44      1.0000 0.09176  0.47334  0.96156  Biso   1.000  C
  C45      1.0000 0.52666  0.52666  0.03844  Biso   1.000  C
  C46      1.0000 0.52666  0.52666  0.90824  Biso   1.000  C
  C47      1.0000 0.90824  0.03844  0.52666  Biso   1.000  C
  C48      1.0000 0.03844  0.90824  0.52666  Biso   1.000  C
  C49      1.0000 0.03844  0.52666  0.90824  Biso   1.000  C
  C50      1.0000 0.90824  0.52666  0.03844  Biso   1.000  C
  C51      1.0000 0.52666  0.03844  0.52666  Biso   1.000  C
  C52      1.0000 0.52666  0.90824  0.52666  Biso   1.000  C
  C53      1.0000 0.90824  0.52666  0.52666  Biso   1.000  C
  C54      1.0000 0.03844  0.52666  0.52666  Biso   1.000  C
  C55      1.0000 0.52666  0.03844  0.90824  Biso   1.000  C
  C56      1.0000 0.52666  0.90824  0.03844  Biso   1.000  C
  C57      1.0000 0.38843  0.38843  0.11157  Biso   1.000  C
  C58      1.0000 0.44642  0.44642  0.05358  Biso   1.000  C
  C59      1.0000 0.11157  0.11157  0.38843  Biso   1.000  C
  C60      1.0000 0.05358  0.05358  0.44642  Biso   1.000  C
  C61      1.0000 0.38843  0.11157  0.11157  Biso   1.000  C
  C62      1.0000 0.44642  0.05358  0.05358  Biso   1.000  C
  C63      1.0000 0.11157  0.38843  0.38843  Biso   1.000  C
  C64      1.0000 0.05358  0.44642  0.44642  Biso   1.000  C
  C65      1.0000 0.38843  0.11157  0.38843  Biso   1.000  C
  C66      1.0000 0.44642  0.05358  0.44642  Biso   1.000  C
  C67      1.0000 0.11157  0.38843  0.11157  Biso   1.000  C
  C68      1.0000 0.05358  0.44642  0.05358  Biso   1.000  C
  C69      1.0000 0.61157  0.61157  0.88843  Biso   1.000  C
  C70      1.0000 0.55358  0.55358  0.94642  Biso   1.000  C
  C71      1.0000 0.88843  0.88843  0.61157  Biso   1.000  C
  C72      1.0000 0.94642  0.94642  0.55358  Biso   1.000  C
  C73      1.0000 0.88843  0.61157  0.88843  Biso   1.000  C
  C74      1.0000 0.94642  0.55358  0.94642  Biso   1.000  C
  C75      1.0000 0.61157  0.88843  0.61157  Biso   1.000  C
  C76      1.0000 0.55358  0.94642  0.55358  Biso   1.000  C
  C77      1.0000 0.88843  0.61157  0.61157  Biso   1.000  C
  C78      1.0000 0.94642  0.55358  0.55358  Biso   1.000  C
  C79      1.0000 0.61157  0.88843  0.88843  Biso   1.000  C
  C80      1.0000 0.55358  0.94642  0.94642  Biso   1.000  C
  C81      1.0000 0.25000  0.25000  0.25000  Biso   1.000  C
  C82      1.0000 0.75000  0.75000  0.75000  Biso   1.000  C
  C83      1.0000 0.36609  0.36609  0.07295  Biso   1.000  C
  C84      1.0000 0.36609  0.36609  0.19487  Biso   1.000  C
  C85      1.0000 0.07295  0.19487  0.36609  Biso   1.000  C
  C86      1.0000 0.19487  0.07295  0.36609  Biso   1.000  C
  C87      1.0000 0.36609  0.07295  0.19487  Biso   1.000  C
  C88      1.0000 0.36609  0.19487  0.07295  Biso   1.000  C
  C89      1.0000 0.07295  0.36609  0.36609  Biso   1.000  C
  C90      1.0000 0.19487  0.36609  0.36609  Biso   1.000  C
  C91      1.0000 0.36609  0.19487  0.36609  Biso   1.000  C
  C92      1.0000 0.36609  0.07295  0.36609  Biso   1.000  C
  C93      1.0000 0.07295  0.36609  0.19487  Biso   1.000  C
  C94      1.0000 0.19487  0.36609  0.07295  Biso   1.000  C
  C95      1.0000 0.63391  0.63391  0.92705  Biso   1.000  C
  C96      1.0000 0.63391  0.63391  0.80513  Biso   1.000  C
  C97      1.0000 0.80513  0.92705  0.63391  Biso   1.000  C
  C98      1.0000 0.92705  0.80513  0.63391  Biso   1.000  C
  C99      1.0000 0.92705  0.63391  0.80513  Biso   1.000  C
  C100     1.0000 0.80513  0.63391  0.92705  Biso   1.000  C
  C101     1.0000 0.63391  0.92705  0.63391  Biso   1.000  C
  C102     1.0000 0.63391  0.80513  0.63391  Biso   1.000  C
  C103     1.0000 0.80513  0.63391  0.63391  Biso   1.000  C
  C104     1.0000 0.92705  0.63391  0.63391  Biso   1.000  C
  C105     1.0000 0.63391  0.92705  0.80513  Biso   1.000  C
  C106     1.0000 0.63391  0.80513  0.92705  Biso   1.000  C
  O1       1.0000 0.50188  0.51939  0.33460  Biso   1.000  O
  O2       1.0000 0.50188  0.51939  0.50835  Biso   1.000  O
  O3       1.0000 0.32813  0.51939  0.50835  Biso   1.000  O
  O4       1.0000 0.50188  0.34564  0.50835  Biso   1.000  O
  O5       1.0000 0.91402  0.93155  0.09426  Biso   1.000  O
  O6       1.0000 0.91402  0.93155  0.92051  Biso   1.000  O
  O7       1.0000 0.91402  0.10530  0.92051  Biso   1.000  O
  O8       1.0000 0.08777  0.93155  0.92051  Biso   1.000  O
  O9       1.0000 0.66374  0.68126  0.14948  Biso   1.000  O
  O10      1.0000 0.66374  0.68126  0.36780  Biso   1.000  O
  O11      1.0000 0.14300  0.37885  0.67022  Biso   1.000  O
  O12      1.0000 0.36132  0.16053  0.67022  Biso   1.000  O
  O13      1.0000 0.66374  0.16053  0.36780  Biso   1.000  O
  O14      1.0000 0.66374  0.37885  0.14948  Biso   1.000  O
  O15      1.0000 0.14300  0.68126  0.67022  Biso   1.000  O
  O16      1.0000 0.36132  0.68126  0.67022  Biso   1.000  O
  O17      1.0000 0.66374  0.37885  0.67022  Biso   1.000  O
  O18      1.0000 0.66374  0.16053  0.67022  Biso   1.000  O
  O19      1.0000 0.14300  0.68126  0.36780  Biso   1.000  O
  O20      1.0000 0.36132  0.68126  0.14948  Biso   1.000  O
  O21      1.0000 0.75216  0.76969  0.27938  Biso   1.000  O
  O22      1.0000 0.75216  0.76969  0.06106  Biso   1.000  O
  O23      1.0000 0.05458  0.29042  0.75864  Biso   1.000  O
  O24      1.0000 0.27289  0.07210  0.75864  Biso   1.000  O
  O25      1.0000 0.27289  0.76969  0.06106  Biso   1.000  O
  O26      1.0000 0.05458  0.76969  0.27938  Biso   1.000  O
  O27      1.0000 0.75216  0.29042  0.75864  Biso   1.000  O
  O28      1.0000 0.75216  0.07210  0.75864  Biso   1.000  O
  O29      1.0000 0.05458  0.76969  0.75864  Biso   1.000  O
  O30      1.0000 0.27289  0.76969  0.75864  Biso   1.000  O
  O31      1.0000 0.75216  0.29042  0.06106  Biso   1.000  O
  O32      1.0000 0.75216  0.07210  0.27938  Biso   1.000  O
  O33      1.0000 0.68142  0.69894  0.17599  Biso   1.000  O
  O34      1.0000 0.68142  0.69894  0.30592  Biso   1.000  O
  O35      1.0000 0.16951  0.31697  0.68790  Biso   1.000  O
  O36      1.0000 0.29944  0.18703  0.68790  Biso   1.000  O
  O37      1.0000 0.68142  0.18703  0.30592  Biso   1.000  O
  O38      1.0000 0.68142  0.31697  0.17599  Biso   1.000  O
  O39      1.0000 0.16951  0.69894  0.68790  Biso   1.000  O
  O40      1.0000 0.29944  0.69894  0.68790  Biso   1.000  O
  O41      1.0000 0.68142  0.31697  0.68790  Biso   1.000  O
  O42      1.0000 0.68142  0.18703  0.68790  Biso   1.000  O
  O43      1.0000 0.16951  0.69894  0.30592  Biso   1.000  O
  O44      1.0000 0.29944  0.69894  0.17599  Biso   1.000  O
  O45      1.0000 0.73448  0.75200  0.25287  Biso   1.000  O
  O46      1.0000 0.73448  0.75200  0.12294  Biso   1.000  O
  O47      1.0000 0.11646  0.26391  0.74096  Biso   1.000  O
  O48      1.0000 0.24639  0.13398  0.74096  Biso   1.000  O
  O49      1.0000 0.24639  0.75200  0.12294  Biso   1.000  O
  O50      1.0000 0.11646  0.75200  0.25287  Biso   1.000  O
  O51      1.0000 0.73448  0.26391  0.74096  Biso   1.000  O
  O52      1.0000 0.73448  0.13398  0.74096  Biso   1.000  O
  O53      1.0000 0.11646  0.75200  0.74096  Biso   1.000  O
  O54      1.0000 0.24639  0.75200  0.74096  Biso   1.000  O
  O55      1.0000 0.73448  0.26391  0.12294  Biso   1.000  O
  O56      1.0000 0.73448  0.13398  0.25287  Biso   1.000  O
  O57      1.0000 0.59675  0.61427  0.32660  Biso   1.000  O
  O58      1.0000 0.65430  0.67183  0.26905  Biso   1.000  O
  O59      1.0000 0.32012  0.33765  0.60323  Biso   1.000  O
  O60      1.0000 0.26257  0.28009  0.66078  Biso   1.000  O
  O61      1.0000 0.59675  0.33765  0.32660  Biso   1.000  O
  O62      1.0000 0.65430  0.28009  0.26905  Biso   1.000  O
  O63      1.0000 0.32012  0.61427  0.60323  Biso   1.000  O
  O64      1.0000 0.26257  0.67183  0.66078  Biso   1.000  O
  O65      1.0000 0.59675  0.33765  0.60323  Biso   1.000  O
  O66      1.0000 0.65430  0.28009  0.66078  Biso   1.000  O
  O67      1.0000 0.32012  0.61427  0.32660  Biso   1.000  O
  O68      1.0000 0.26257  0.67183  0.26905  Biso   1.000  O
  O69      1.0000 0.81915  0.83668  0.10226  Biso   1.000  O
  O70      1.0000 0.76160  0.77912  0.15981  Biso   1.000  O
  O71      1.0000 0.09578  0.11330  0.82563  Biso   1.000  O
  O72      1.0000 0.15333  0.17086  0.76808  Biso   1.000  O
  O73      1.0000 0.09578  0.83668  0.10226  Biso   1.000  O
  O74      1.0000 0.15333  0.77912  0.15981  Biso   1.000  O
  O75      1.0000 0.81915  0.11330  0.82563  Biso   1.000  O
  O76      1.0000 0.76160  0.17086  0.76808  Biso   1.000  O
  O77      1.0000 0.09578  0.83668  0.82563  Biso   1.000  O
  O78      1.0000 0.15333  0.77912  0.76808  Biso   1.000  O
  O79      1.0000 0.81915  0.11330  0.10226  Biso   1.000  O
  O80      1.0000 0.76160  0.17086  0.15981  Biso   1.000  O
  O81      1.0000 0.45843  0.47596  0.46492  Biso   1.000  O
  O82      1.0000 0.95746  0.97499  0.96395  Biso   1.000  O
  O83      1.0000 0.57438  0.59190  0.28813  Biso   1.000  O
  O84      1.0000 0.57438  0.59190  0.40981  Biso   1.000  O
  O85      1.0000 0.28165  0.42085  0.58086  Biso   1.000  O
  O86      1.0000 0.40333  0.29917  0.58086  Biso   1.000  O
  O87      1.0000 0.57438  0.29917  0.40981  Biso   1.000  O
  O88      1.0000 0.57438  0.42085  0.28813  Biso   1.000  O
  O89      1.0000 0.28165  0.59190  0.58086  Biso   1.000  O
  O90      1.0000 0.40333  0.59190  0.58086  Biso   1.000  O
  O91      1.0000 0.57438  0.42085  0.58086  Biso   1.000  O
  O92      1.0000 0.57438  0.29917  0.58086  Biso   1.000  O
  O93      1.0000 0.28165  0.59190  0.40981  Biso   1.000  O
  O94      1.0000 0.40333  0.59190  0.28813  Biso   1.000  O
  O95      1.0000 0.84152  0.85904  0.14073  Biso   1.000  O
  O96      1.0000 0.84152  0.85904  0.01905  Biso   1.000  O
  O97      1.0000 0.01257  0.15177  0.84800  Biso   1.000  O
  O98      1.0000 0.13425  0.03009  0.84800  Biso   1.000  O
  O99      1.0000 0.13425  0.85904  0.01905  Biso   1.000  O
  O100     1.0000 0.01257  0.85904  0.14073  Biso   1.000  O
  O101     1.0000 0.84152  0.15177  0.84800  Biso   1.000  O
  O102     1.0000 0.84152  0.03009  0.84800  Biso   1.000  O
  O103     1.0000 0.01257  0.85904  0.84800  Biso   1.000  O
  O104     1.0000 0.13425  0.85904  0.84800  Biso   1.000  O
  O105     1.0000 0.84152  0.15177  0.01905  Biso   1.000  O
