data_image0
_cell_length_a       18.2455
_cell_length_b       18.2455
_cell_length_c       18.2455
_cell_angle_alpha    60
_cell_angle_beta     60
_cell_angle_gamma    60

_symmetry_space_group_name_H-M    "P 1"
_symmetry_int_tables_number       1

loop_
  _symmetry_equiv_pos_as_xyz
  'x, y, z'

loop_
  _atom_site_label
  _atom_site_occupancy
  _atom_site_fract_x
  _atom_site_fract_y
  _atom_site_fract_z
  _atom_site_thermal_displace_type
  _atom_site_B_iso_or_equiv
  _atom_site_type_symbol
  C1       1.0000 0.29354  0.29354  0.11938  Biso   1.000  C
  C2       1.0000 0.29354  0.29354  0.29354  Biso   1.000  C
  C3       1.0000 0.11938  0.29354  0.29354  Biso   1.000  C
  C4       1.0000 0.29354  0.11938  0.29354  Biso   1.000  C
  C5       1.0000 0.70646  0.70646  0.88062  Biso   1.000  C
  C6       1.0000 0.70646  0.70646  0.70646  Biso   1.000  C
  C7       1.0000 0.70646  0.88062  0.70646  Biso   1.000  C
  C8       1.0000 0.88062  0.70646  0.70646  Biso   1.000  C
  C9       1.0000 0.45580  0.45580  0.93620  Biso   1.000  C
  C10      1.0000 0.45580  0.45580  0.15220  Biso   1.000  C
  C11      1.0000 0.93620  0.15220  0.45580  Biso   1.000  C
  C12      1.0000 0.15220  0.93620  0.45580  Biso   1.000  C
  C13      1.0000 0.45580  0.93620  0.15220  Biso   1.000  C
  C14      1.0000 0.45580  0.15220  0.93620  Biso   1.000  C
  C15      1.0000 0.93620  0.45580  0.45580  Biso   1.000  C
  C16      1.0000 0.15220  0.45580  0.45580  Biso   1.000  C
  C17      1.0000 0.45580  0.15220  0.45580  Biso   1.000  C
  C18      1.0000 0.45580  0.93620  0.45580  Biso   1.000  C
  C19      1.0000 0.93620  0.45580  0.15220  Biso   1.000  C
  C20      1.0000 0.15220  0.45580  0.93620  Biso   1.000  C
  C21      1.0000 0.54420  0.54420  0.06380  Biso   1.000  C
  C22      1.0000 0.54420  0.54420  0.84780  Biso   1.000  C
  C23      1.0000 0.84780  0.06380  0.54420  Biso   1.000  C
  C24      1.0000 0.06380  0.84780  0.54420  Biso   1.000  C
  C25      1.0000 0.06380  0.54420  0.84780  Biso   1.000  C
  C26      1.0000 0.84780  0.54420  0.06380  Biso   1.000  C
  C27      1.0000 0.54420  0.06380  0.54420  Biso   1.000  C
  C28      1.0000 0.54420  0.84780  0.54420  Biso   1.000  C
  C29      1.0000 0.84780  0.54420  0.54420  Biso   1.000  C
  C30      1.0000 0.06380  0.54420  0.54420  Biso   1.000  C
  C31      1.0000 0.54420  0.06380  0.84780  Biso   1.000  C
  C32      1.0000 0.54420  0.84780  0.06380  Biso   1.000  C
  C33      1.0000 0.47345  0.47345  0.96303  Biso   1.000  C
  C34      1.0000 0.47345  0.47345  0.09007  Biso   1.000  C
  C35      1.0000 0.96303  0.09007  0.47345  Biso   1.000  C
  C36      1.0000 0.09007  0.96303  0.47345  Biso   1.000  C
  C37      1.0000 0.47345  0.96303  0.09007  Biso   1.000  C
  C38      1.0000 0.47345  0.09007  0.96303  Biso   1.000  C
  C39      1.0000 0.96303  0.47345  0.47345  Biso   1.000  C
  C40      1.0000 0.09007  0.47345  0.47345  Biso   1.000  C
  C41      1.0000 0.47345  0.09007  0.47345  Biso   1.000  C
  C42      1.0000 0.47345  0.96303  0.47345  Biso   1.000  C
  C43      1.0000 0.96303  0.47345  0.09007  Biso   1.000  C
  C44      1.0000 0.09007  0.47345  0.96303  Biso   1.000  C
  C45      1.0000 0.52655  0.52655  0.03697  Biso   1.000  C
  C46      1.0000 0.52655  0.52655  0.90993  Biso   1.000  C
  C47      1.0000 0.90993  0.03697  0.52655  Biso   1.000  C
  C48      1.0000 0.03697  0.90993  0.52655  Biso   1.000  C
  C49      1.0000 0.03697  0.52655  0.90993  Biso   1.000  C
  C50      1.0000 0.90993  0.52655  0.03697  Biso   1.000  C
  C51      1.0000 0.52655  0.03697  0.52655  Biso   1.000  C
  C52      1.0000 0.52655  0.90993  0.52655  Biso   1.000  C
  C53      1.0000 0.90993  0.52655  0.52655  Biso   1.000  C
  C54      1.0000 0.03697  0.52655  0.52655  Biso   1.000  C
  C55      1.0000 0.52655  0.03697  0.90993  Biso   1.000  C
  C56      1.0000 0.52655  0.90993  0.03697  Biso   1.000  C
  C57      1.0000 0.38857  0.38857  0.11143  Biso   1.000  C
  C58      1.0000 0.44620  0.44620  0.05380  Biso   1.000  C
  C59      1.0000 0.11143  0.11143  0.38857  Biso   1.000  C
  C60      1.0000 0.05380  0.05380  0.44620  Biso   1.000  C
  C61      1.0000 0.38857  0.11143  0.11143  Biso   1.000  C
  C62      1.0000 0.44620  0.05380  0.05380  Biso   1.000  C
  C63      1.0000 0.11143  0.38857  0.38857  Biso   1.000  C
  C64      1.0000 0.05380  0.44620  0.44620  Biso   1.000  C
  C65      1.0000 0.38857  0.11143  0.38857  Biso   1.000  C
  C66      1.0000 0.44620  0.05380  0.44620  Biso   1.000  C
  C67      1.0000 0.11143  0.38857  0.11143  Biso   1.000  C
  C68      1.0000 0.05380  0.44620  0.05380  Biso   1.000  C
  C69      1.0000 0.61143  0.61143  0.88857  Biso   1.000  C
  C70      1.0000 0.55380  0.55380  0.94620  Biso   1.000  C
  C71      1.0000 0.88857  0.88857  0.61143  Biso   1.000  C
  C72      1.0000 0.94620  0.94620  0.55380  Biso   1.000  C
  C73      1.0000 0.88857  0.61143  0.88857  Biso   1.000  C
  C74      1.0000 0.94620  0.55380  0.94620  Biso   1.000  C
  C75      1.0000 0.61143  0.88857  0.61143  Biso   1.000  C
  C76      1.0000 0.55380  0.94620  0.55380  Biso   1.000  C
  C77      1.0000 0.88857  0.61143  0.61143  Biso   1.000  C
  C78      1.0000 0.94620  0.55380  0.55380  Biso   1.000  C
  C79      1.0000 0.61143  0.88857  0.88857  Biso   1.000  C
  C80      1.0000 0.55380  0.94620  0.94620  Biso   1.000  C
  C81      1.0000 0.25000  0.25000  0.25000  Biso   1.000  C
  C82      1.0000 0.75000  0.75000  0.75000  Biso   1.000  C
  C83      1.0000 0.36603  0.36603  0.07311  Biso   1.000  C
  C84      1.0000 0.36603  0.36603  0.19483  Biso   1.000  C
  C85      1.0000 0.07311  0.19483  0.36603  Biso   1.000  C
  C86      1.0000 0.19483  0.07311  0.36603  Biso   1.000  C
  C87      1.0000 0.36603  0.07311  0.19483  Biso   1.000  C
  C88      1.0000 0.36603  0.19483  0.07311  Biso   1.000  C
  C89      1.0000 0.07311  0.36603  0.36603  Biso   1.000  C
  C90      1.0000 0.19483  0.36603  0.36603  Biso   1.000  C
  C91      1.0000 0.36603  0.19483  0.36603  Biso   1.000  C
  C92      1.0000 0.36603  0.07311  0.36603  Biso   1.000  C
  C93      1.0000 0.07311  0.36603  0.19483  Biso   1.000  C
  C94      1.0000 0.19483  0.36603  0.07311  Biso   1.000  C
  C95      1.0000 0.63397  0.63397  0.92689  Biso   1.000  C
  C96      1.0000 0.63397  0.63397  0.80517  Biso   1.000  C
  C97      1.0000 0.80517  0.92689  0.63397  Biso   1.000  C
  C98      1.0000 0.92689  0.80517  0.63397  Biso   1.000  C
  C99      1.0000 0.92689  0.63397  0.80517  Biso   1.000  C
  C100     1.0000 0.80517  0.63397  0.92689  Biso   1.000  C
  C101     1.0000 0.63397  0.92689  0.63397  Biso   1.000  C
  C102     1.0000 0.63397  0.80517  0.63397  Biso   1.000  C
  C103     1.0000 0.80517  0.63397  0.63397  Biso   1.000  C
  C104     1.0000 0.92689  0.63397  0.63397  Biso   1.000  C
  C105     1.0000 0.63397  0.92689  0.80517  Biso   1.000  C
  C106     1.0000 0.63397  0.80517  0.92689  Biso   1.000  C
  O1       1.0000 0.00551  0.84127  0.13425  Biso   1.000  O
  O2       1.0000 0.00551  0.01704  0.13425  Biso   1.000  O
  O3       1.0000 0.82974  0.01704  0.13425  Biso   1.000  O
  O4       1.0000 0.00551  0.01704  0.95848  Biso   1.000  O
  O5       1.0000 0.42255  0.42751  0.54472  Biso   1.000  O
  O6       1.0000 0.42255  0.60329  0.54472  Biso   1.000  O
  O7       1.0000 0.59833  0.42751  0.54472  Biso   1.000  O
  O8       1.0000 0.42255  0.42751  0.72050  Biso   1.000  O
  O9       1.0000 0.87238  0.65917  0.29187  Biso   1.000  O
  O10      1.0000 0.16313  0.17466  0.00112  Biso   1.000  O
  O11      1.0000 0.64764  0.88391  0.29187  Biso   1.000  O
  O12      1.0000 0.16313  0.17466  0.77638  Biso   1.000  O
  O13      1.0000 0.64764  0.17466  0.00112  Biso   1.000  O
  O14      1.0000 0.16313  0.88391  0.29187  Biso   1.000  O
  O15      1.0000 0.87238  0.17466  0.77638  Biso   1.000  O
  O16      1.0000 0.16313  0.65917  0.29187  Biso   1.000  O
  O17      1.0000 0.16313  0.88391  0.77638  Biso   1.000  O
  O18      1.0000 0.87238  0.17466  0.29187  Biso   1.000  O
  O19      1.0000 0.16313  0.65917  0.00112  Biso   1.000  O
  O20      1.0000 0.64764  0.17466  0.29187  Biso   1.000  O
  O21      1.0000 0.55569  0.26990  0.38711  Biso   1.000  O
  O22      1.0000 0.26493  0.78538  0.67786  Biso   1.000  O
  O23      1.0000 0.78042  0.26990  0.38711  Biso   1.000  O
  O24      1.0000 0.26493  0.56065  0.90259  Biso   1.000  O
  O25      1.0000 0.78042  0.26990  0.67786  Biso   1.000  O
  O26      1.0000 0.26493  0.78538  0.38711  Biso   1.000  O
  O27      1.0000 0.55569  0.26990  0.90259  Biso   1.000  O
  O28      1.0000 0.26493  0.56065  0.38711  Biso   1.000  O
  O29      1.0000 0.26493  0.26990  0.90259  Biso   1.000  O
  O30      1.0000 0.55569  0.78538  0.38711  Biso   1.000  O
  O31      1.0000 0.26493  0.26990  0.67786  Biso   1.000  O
  O32      1.0000 0.78042  0.56065  0.38711  Biso   1.000  O
  O33      1.0000 0.80295  0.68245  0.31494  Biso   1.000  O
  O34      1.0000 0.18620  0.19773  0.93169  Biso   1.000  O
  O35      1.0000 0.67092  0.81448  0.31494  Biso   1.000  O
  O36      1.0000 0.18620  0.19773  0.79966  Biso   1.000  O
  O37      1.0000 0.67092  0.19773  0.93169  Biso   1.000  O
  O38      1.0000 0.18620  0.81448  0.31494  Biso   1.000  O
  O39      1.0000 0.80295  0.19773  0.79966  Biso   1.000  O
  O40      1.0000 0.18620  0.68245  0.31494  Biso   1.000  O
  O41      1.0000 0.18620  0.81448  0.79966  Biso   1.000  O
  O42      1.0000 0.80295  0.19773  0.31494  Biso   1.000  O
  O43      1.0000 0.18620  0.68245  0.93169  Biso   1.000  O
  O44      1.0000 0.67092  0.19773  0.31494  Biso   1.000  O
  O45      1.0000 0.62511  0.24682  0.36403  Biso   1.000  O
  O46      1.0000 0.24186  0.76211  0.74729  Biso   1.000  O
  O47      1.0000 0.75715  0.24682  0.36403  Biso   1.000  O
  O48      1.0000 0.24186  0.63007  0.87932  Biso   1.000  O
  O49      1.0000 0.75715  0.24682  0.74729  Biso   1.000  O
  O50      1.0000 0.24186  0.76211  0.36403  Biso   1.000  O
  O51      1.0000 0.62511  0.24682  0.87932  Biso   1.000  O
  O52      1.0000 0.24186  0.63007  0.36403  Biso   1.000  O
  O53      1.0000 0.24186  0.24682  0.87932  Biso   1.000  O
  O54      1.0000 0.62511  0.76211  0.36403  Biso   1.000  O
  O55      1.0000 0.24186  0.24682  0.74729  Biso   1.000  O
  O56      1.0000 0.75715  0.63007  0.36403  Biso   1.000  O
  O57      1.0000 0.81961  0.83113  0.23227  Biso   1.000  O
  O58      1.0000 0.76593  0.77746  0.28595  Biso   1.000  O
  O59      1.0000 0.10353  0.11506  0.94834  Biso   1.000  O
  O60      1.0000 0.15721  0.16874  0.89467  Biso   1.000  O
  O61      1.0000 0.81961  0.11506  0.94834  Biso   1.000  O
  O62      1.0000 0.76593  0.16874  0.89467  Biso   1.000  O
  O63      1.0000 0.10353  0.83113  0.23227  Biso   1.000  O
  O64      1.0000 0.15721  0.77746  0.28595  Biso   1.000  O
  O65      1.0000 0.10353  0.83113  0.94834  Biso   1.000  O
  O66      1.0000 0.15721  0.77746  0.89467  Biso   1.000  O
  O67      1.0000 0.81961  0.11506  0.23227  Biso   1.000  O
  O68      1.0000 0.76593  0.16874  0.28595  Biso   1.000  O
  O69      1.0000 0.60846  0.32949  0.44670  Biso   1.000  O
  O70      1.0000 0.66213  0.27582  0.39303  Biso   1.000  O
  O71      1.0000 0.32453  0.61342  0.73063  Biso   1.000  O
  O72      1.0000 0.27085  0.66710  0.78431  Biso   1.000  O
  O73      1.0000 0.60846  0.32949  0.73063  Biso   1.000  O
  O74      1.0000 0.66213  0.27582  0.78431  Biso   1.000  O
  O75      1.0000 0.32453  0.61342  0.44670  Biso   1.000  O
  O76      1.0000 0.27085  0.66710  0.39303  Biso   1.000  O
  O77      1.0000 0.32453  0.32949  0.73063  Biso   1.000  O
  O78      1.0000 0.27085  0.27582  0.78431  Biso   1.000  O
  O79      1.0000 0.60846  0.61342  0.44670  Biso   1.000  O
  O80      1.0000 0.66213  0.66710  0.39303  Biso   1.000  O
  O81      1.0000 0.96157  0.97310  0.09031  Biso   1.000  O
  O82      1.0000 0.46649  0.47146  0.58867  Biso   1.000  O
  O83      1.0000 0.90649  0.79521  0.20679  Biso   1.000  O
  O84      1.0000 0.07805  0.08958  0.03523  Biso   1.000  O
  O85      1.0000 0.78369  0.91802  0.20679  Biso   1.000  O
  O86      1.0000 0.07805  0.08958  0.91243  Biso   1.000  O
  O87      1.0000 0.78369  0.08958  0.03523  Biso   1.000  O
  O88      1.0000 0.07805  0.91802  0.20679  Biso   1.000  O
  O89      1.0000 0.90649  0.08958  0.91243  Biso   1.000  O
  O90      1.0000 0.07805  0.79521  0.20679  Biso   1.000  O
  O91      1.0000 0.07805  0.91802  0.91243  Biso   1.000  O
  O92      1.0000 0.90649  0.08958  0.20679  Biso   1.000  O
  O93      1.0000 0.07805  0.79521  0.03523  Biso   1.000  O
  O94      1.0000 0.78369  0.08958  0.20679  Biso   1.000  O
  O95      1.0000 0.52157  0.35497  0.47219  Biso   1.000  O
  O96      1.0000 0.35001  0.64934  0.64375  Biso   1.000  O
  O97      1.0000 0.64438  0.35497  0.47219  Biso   1.000  O
  O98      1.0000 0.35001  0.52654  0.76655  Biso   1.000  O
  O99      1.0000 0.64438  0.35497  0.64375  Biso   1.000  O
  O100     1.0000 0.35001  0.64934  0.47219  Biso   1.000  O
  O101     1.0000 0.52157  0.35497  0.76655  Biso   1.000  O
  O102     1.0000 0.35001  0.52654  0.47219  Biso   1.000  O
  O103     1.0000 0.35001  0.35497  0.76655  Biso   1.000  O
  O104     1.0000 0.52157  0.64934  0.47219  Biso   1.000  O
  O105     1.0000 0.35001  0.35497  0.64375  Biso   1.000  O
