data_image0
_cell_length_a       18.2789
_cell_length_b       18.2789
_cell_length_c       18.2789
_cell_angle_alpha    60
_cell_angle_beta     60
_cell_angle_gamma    60

_symmetry_space_group_name_H-M    "P 1"
_symmetry_int_tables_number       1

loop_
  _symmetry_equiv_pos_as_xyz
  'x, y, z'

loop_
  _atom_site_label
  _atom_site_occupancy
  _atom_site_fract_x
  _atom_site_fract_y
  _atom_site_fract_z
  _atom_site_thermal_displace_type
  _atom_site_B_iso_or_equiv
  _atom_site_type_symbol
  Zn1      1.0000 0.29348  0.29347  0.11958  Biso   1.000  Zn
  Zn2      1.0000 0.29348  0.29347  0.29347  Biso   1.000  Zn
  Zn3      1.0000 0.11959  0.29347  0.29347  Biso   1.000  Zn
  Zn4      1.0000 0.29348  0.11958  0.29347  Biso   1.000  Zn
  Zn5      1.0000 0.70652  0.70653  0.88042  Biso   1.000  Zn
  Zn6      1.0000 0.70652  0.70653  0.70653  Biso   1.000  Zn
  Zn7      1.0000 0.70652  0.88042  0.70653  Biso   1.000  Zn
  Zn8      1.0000 0.88041  0.70653  0.70653  Biso   1.000  Zn
  H1       1.0000 0.45520  0.45520  0.93520  Biso   1.000  H
  H2       1.0000 0.45520  0.45520  0.15440  Biso   1.000  H
  H3       1.0000 0.93520  0.15440  0.45520  Biso   1.000  H
  H4       1.0000 0.15440  0.93520  0.45520  Biso   1.000  H
  H5       1.0000 0.45520  0.93520  0.15440  Biso   1.000  H
  H6       1.0000 0.45520  0.15440  0.93520  Biso   1.000  H
  H7       1.0000 0.93520  0.45520  0.45520  Biso   1.000  H
  H8       1.0000 0.15440  0.45520  0.45520  Biso   1.000  H
  H9       1.0000 0.45520  0.15440  0.45520  Biso   1.000  H
  H10      1.0000 0.45520  0.93520  0.45520  Biso   1.000  H
  H11      1.0000 0.93520  0.45520  0.15440  Biso   1.000  H
  H12      1.0000 0.15440  0.45520  0.93520  Biso   1.000  H
  H13      1.0000 0.54480  0.54480  0.06480  Biso   1.000  H
  H14      1.0000 0.54480  0.54480  0.84560  Biso   1.000  H
  H15      1.0000 0.84560  0.06480  0.54480  Biso   1.000  H
  H16      1.0000 0.06480  0.84560  0.54480  Biso   1.000  H
  H17      1.0000 0.06480  0.54480  0.84560  Biso   1.000  H
  H18      1.0000 0.84560  0.54480  0.06480  Biso   1.000  H
  H19      1.0000 0.54480  0.06480  0.54480  Biso   1.000  H
  H20      1.0000 0.54480  0.84560  0.54480  Biso   1.000  H
  H21      1.0000 0.84560  0.54480  0.54480  Biso   1.000  H
  H22      1.0000 0.06480  0.54480  0.54480  Biso   1.000  H
  H23      1.0000 0.54480  0.06480  0.84560  Biso   1.000  H
  H24      1.0000 0.54480  0.84560  0.06480  Biso   1.000  H
  C1       1.0000 0.47338  0.47338  0.96214  Biso   1.000  C
  C2       1.0000 0.47338  0.47338  0.09110  Biso   1.000  C
  C3       1.0000 0.96214  0.09110  0.47338  Biso   1.000  C
  C4       1.0000 0.09110  0.96214  0.47338  Biso   1.000  C
  C5       1.0000 0.47338  0.96214  0.09110  Biso   1.000  C
  C6       1.0000 0.47338  0.09110  0.96214  Biso   1.000  C
  C7       1.0000 0.96214  0.47338  0.47338  Biso   1.000  C
  C8       1.0000 0.09110  0.47338  0.47338  Biso   1.000  C
  C9       1.0000 0.47338  0.09110  0.47338  Biso   1.000  C
  C10      1.0000 0.47338  0.96214  0.47338  Biso   1.000  C
  C11      1.0000 0.96214  0.47338  0.09110  Biso   1.000  C
  C12      1.0000 0.09110  0.47338  0.96214  Biso   1.000  C
  C13      1.0000 0.52662  0.52662  0.03786  Biso   1.000  C
  C14      1.0000 0.52662  0.52662  0.90890  Biso   1.000  C
  C15      1.0000 0.90890  0.03786  0.52662  Biso   1.000  C
  C16      1.0000 0.03786  0.90890  0.52662  Biso   1.000  C
  C17      1.0000 0.03786  0.52662  0.90890  Biso   1.000  C
  C18      1.0000 0.90890  0.52662  0.03786  Biso   1.000  C
  C19      1.0000 0.52662  0.03786  0.52662  Biso   1.000  C
  C20      1.0000 0.52662  0.90890  0.52662  Biso   1.000  C
  C21      1.0000 0.90890  0.52662  0.52662  Biso   1.000  C
  C22      1.0000 0.03786  0.52662  0.52662  Biso   1.000  C
  C23      1.0000 0.52662  0.03786  0.90890  Biso   1.000  C
  C24      1.0000 0.52662  0.90890  0.03786  Biso   1.000  C
  C25      1.0000 0.38853  0.38853  0.11147  Biso   1.000  C
  C26      1.0000 0.44615  0.44615  0.05385  Biso   1.000  C
  C27      1.0000 0.11147  0.11147  0.38853  Biso   1.000  C
  C28      1.0000 0.05385  0.05385  0.44615  Biso   1.000  C
  C29      1.0000 0.38853  0.11147  0.11147  Biso   1.000  C
  C30      1.0000 0.44615  0.05385  0.05385  Biso   1.000  C
  C31      1.0000 0.11147  0.38853  0.38853  Biso   1.000  C
  C32      1.0000 0.05385  0.44615  0.44615  Biso   1.000  C
  C33      1.0000 0.38853  0.11147  0.38853  Biso   1.000  C
  C34      1.0000 0.44615  0.05385  0.44615  Biso   1.000  C
  C35      1.0000 0.11147  0.38853  0.11147  Biso   1.000  C
  C36      1.0000 0.05385  0.44615  0.05385  Biso   1.000  C
  C37      1.0000 0.61147  0.61147  0.88853  Biso   1.000  C
  C38      1.0000 0.55385  0.55385  0.94615  Biso   1.000  C
  C39      1.0000 0.88853  0.88853  0.61147  Biso   1.000  C
  C40      1.0000 0.94615  0.94615  0.55385  Biso   1.000  C
  C41      1.0000 0.88853  0.61147  0.88853  Biso   1.000  C
  C42      1.0000 0.94615  0.55385  0.94615  Biso   1.000  C
  C43      1.0000 0.61147  0.88853  0.61147  Biso   1.000  C
  C44      1.0000 0.55385  0.94615  0.55385  Biso   1.000  C
  C45      1.0000 0.88853  0.61147  0.61147  Biso   1.000  C
  C46      1.0000 0.94615  0.55385  0.55385  Biso   1.000  C
  C47      1.0000 0.61147  0.88853  0.88853  Biso   1.000  C
  C48      1.0000 0.55385  0.94615  0.94615  Biso   1.000  C
  O1       1.0000 0.25000  0.25000  0.25000  Biso   1.000  O
  O2       1.0000 0.75000  0.75000  0.75000  Biso   1.000  O
  O3       1.0000 0.36624  0.36624  0.07286  Biso   1.000  O
  O4       1.0000 0.36624  0.36624  0.19466  Biso   1.000  O
  O5       1.0000 0.07286  0.19466  0.36624  Biso   1.000  O
  O6       1.0000 0.19466  0.07286  0.36624  Biso   1.000  O
  O7       1.0000 0.36624  0.07286  0.19466  Biso   1.000  O
  O8       1.0000 0.36624  0.19466  0.07286  Biso   1.000  O
  O9       1.0000 0.07286  0.36624  0.36624  Biso   1.000  O
  O10      1.0000 0.19466  0.36624  0.36624  Biso   1.000  O
  O11      1.0000 0.36624  0.19466  0.36624  Biso   1.000  O
  O12      1.0000 0.36624  0.07286  0.36624  Biso   1.000  O
  O13      1.0000 0.07286  0.36624  0.19466  Biso   1.000  O
  O14      1.0000 0.19466  0.36624  0.07286  Biso   1.000  O
  O15      1.0000 0.63376  0.63376  0.92714  Biso   1.000  O
  O16      1.0000 0.63376  0.63376  0.80534  Biso   1.000  O
  O17      1.0000 0.80534  0.92714  0.63376  Biso   1.000  O
  O18      1.0000 0.92714  0.80534  0.63376  Biso   1.000  O
  O19      1.0000 0.92714  0.63376  0.80534  Biso   1.000  O
  O20      1.0000 0.80534  0.63376  0.92714  Biso   1.000  O
  O21      1.0000 0.63376  0.92714  0.63376  Biso   1.000  O
  O22      1.0000 0.63376  0.80534  0.63376  Biso   1.000  O
  O23      1.0000 0.80534  0.63376  0.63376  Biso   1.000  O
  O24      1.0000 0.92714  0.63376  0.63376  Biso   1.000  O
  O25      1.0000 0.63376  0.92714  0.80534  Biso   1.000  O
  O26      1.0000 0.63376  0.80534  0.92714  Biso   1.000  O
  Zn9      1.0000 0.00550  0.83973  0.13401  Biso   1.000  Zn
  Zn10     1.0000 0.83272  0.01251  0.13401  Biso   1.000  Zn
  Zn11     1.0000 0.00550  0.01251  0.13401  Biso   1.000  Zn
  Zn12     1.0000 0.00550  0.01251  0.96122  Biso   1.000  Zn
  Zn13     1.0000 0.59416  0.42396  0.54545  Biso   1.000  Zn
  Zn14     1.0000 0.41695  0.60117  0.54545  Biso   1.000  Zn
  Zn15     1.0000 0.41695  0.42396  0.72266  Biso   1.000  Zn
  Zn16     1.0000 0.41695  0.42396  0.54545  Biso   1.000  Zn
  H25      1.0000 0.77789  0.56782  0.38377  Biso   1.000  H
  H26      1.0000 0.56081  0.78490  0.38377  Biso   1.000  H
  H27      1.0000 0.25526  0.26227  0.90639  Biso   1.000  H
  H28      1.0000 0.25526  0.26227  0.68931  Biso   1.000  H
  H29      1.0000 0.77789  0.26227  0.38377  Biso   1.000  H
  H30      1.0000 0.56081  0.26227  0.38377  Biso   1.000  H
  H31      1.0000 0.25526  0.78490  0.68931  Biso   1.000  H
  H32      1.0000 0.25526  0.56782  0.90639  Biso   1.000  H
  H33      1.0000 0.77789  0.26227  0.68931  Biso   1.000  H
  H34      1.0000 0.56081  0.26227  0.90639  Biso   1.000  H
  H35      1.0000 0.25526  0.56782  0.38377  Biso   1.000  H
  H36      1.0000 0.25526  0.78490  0.38377  Biso   1.000  H
  C49      1.0000 0.79352  0.68303  0.31834  Biso   1.000  C
  C50      1.0000 0.75130  0.62966  0.36614  Biso   1.000  C
  C51      1.0000 0.67602  0.80053  0.31834  Biso   1.000  C
  C52      1.0000 0.62265  0.75831  0.36614  Biso   1.000  C
  C53      1.0000 0.18984  0.19685  0.92203  Biso   1.000  C
  C54      1.0000 0.23764  0.24465  0.87981  Biso   1.000  C
  C55      1.0000 0.18984  0.19685  0.80453  Biso   1.000  C
  C56      1.0000 0.23764  0.24465  0.75115  Biso   1.000  C
  C57      1.0000 0.79352  0.19685  0.31834  Biso   1.000  C
  C58      1.0000 0.75130  0.24465  0.36614  Biso   1.000  C
  C59      1.0000 0.67602  0.19685  0.31834  Biso   1.000  C
  C60      1.0000 0.62265  0.24465  0.36614  Biso   1.000  C
  C61      1.0000 0.18984  0.80053  0.80453  Biso   1.000  C
  C62      1.0000 0.23764  0.75831  0.75115  Biso   1.000  C
  C63      1.0000 0.18984  0.68303  0.92203  Biso   1.000  C
  C64      1.0000 0.23764  0.62966  0.87981  Biso   1.000  C
  C65      1.0000 0.79352  0.19685  0.80453  Biso   1.000  C
  C66      1.0000 0.75130  0.24465  0.75115  Biso   1.000  C
  C67      1.0000 0.67602  0.19685  0.92203  Biso   1.000  C
  C68      1.0000 0.62265  0.24465  0.87981  Biso   1.000  C
  C69      1.0000 0.18984  0.68303  0.31834  Biso   1.000  C
  C70      1.0000 0.23764  0.62966  0.36614  Biso   1.000  C
  C71      1.0000 0.18984  0.80053  0.31834  Biso   1.000  C
  C72      1.0000 0.23764  0.75831  0.36614  Biso   1.000  C
  C73      1.0000 0.76803  0.77504  0.28508  Biso   1.000  C
  C74      1.0000 0.66427  0.67128  0.38884  Biso   1.000  C
  C75      1.0000 0.60313  0.61014  0.44998  Biso   1.000  C
  C76      1.0000 0.82459  0.83160  0.22853  Biso   1.000  C
  C77      1.0000 0.15658  0.16359  0.89653  Biso   1.000  C
  C78      1.0000 0.26034  0.26735  0.79278  Biso   1.000  C
  C79      1.0000 0.32148  0.32849  0.73164  Biso   1.000  C
  C80      1.0000 0.10002  0.10703  0.95309  Biso   1.000  C
  C81      1.0000 0.76803  0.16359  0.28508  Biso   1.000  C
  C82      1.0000 0.66427  0.26735  0.38884  Biso   1.000  C
  C83      1.0000 0.60313  0.32849  0.44998  Biso   1.000  C
  C84      1.0000 0.82459  0.10703  0.22853  Biso   1.000  C
  C85      1.0000 0.15658  0.77504  0.89653  Biso   1.000  C
  C86      1.0000 0.26034  0.67128  0.79278  Biso   1.000  C
  C87      1.0000 0.32148  0.61014  0.73164  Biso   1.000  C
  C88      1.0000 0.10002  0.83160  0.95309  Biso   1.000  C
  C89      1.0000 0.76803  0.16359  0.89653  Biso   1.000  C
  C90      1.0000 0.66427  0.26735  0.79278  Biso   1.000  C
  C91      1.0000 0.60313  0.32849  0.73164  Biso   1.000  C
  C92      1.0000 0.82459  0.10703  0.95309  Biso   1.000  C
  C93      1.0000 0.15658  0.77504  0.28508  Biso   1.000  C
  C94      1.0000 0.26034  0.67128  0.38884  Biso   1.000  C
  C95      1.0000 0.32148  0.61014  0.44998  Biso   1.000  C
  C96      1.0000 0.10002  0.83160  0.22853  Biso   1.000  C
  O27      1.0000 0.64217  0.52291  0.47408  Biso   1.000  O
  O28      1.0000 0.90405  0.79476  0.20722  Biso   1.000  O
  O29      1.0000 0.51590  0.64918  0.47408  Biso   1.000  O
  O30      1.0000 0.78775  0.91107  0.20722  Biso   1.000  O
  O31      1.0000 0.34558  0.35259  0.77067  Biso   1.000  O
  O32      1.0000 0.07871  0.08572  0.03256  Biso   1.000  O
  O33      1.0000 0.34558  0.35259  0.64441  Biso   1.000  O
  O34      1.0000 0.07871  0.08572  0.91625  Biso   1.000  O
  O35      1.0000 0.64217  0.35259  0.47408  Biso   1.000  O
  O36      1.0000 0.90405  0.08572  0.20722  Biso   1.000  O
  O37      1.0000 0.51590  0.35259  0.47408  Biso   1.000  O
  O38      1.0000 0.78775  0.08572  0.20722  Biso   1.000  O
  O39      1.0000 0.34558  0.64918  0.64441  Biso   1.000  O
  O40      1.0000 0.07871  0.91107  0.91625  Biso   1.000  O
  O41      1.0000 0.34558  0.52291  0.77067  Biso   1.000  O
  O42      1.0000 0.07871  0.79476  0.03256  Biso   1.000  O
  O43      1.0000 0.64217  0.35259  0.64441  Biso   1.000  O
  O44      1.0000 0.90405  0.08572  0.91625  Biso   1.000  O
  O45      1.0000 0.51590  0.35259  0.77067  Biso   1.000  O
  O46      1.0000 0.78775  0.08572  0.03256  Biso   1.000  O
  O47      1.0000 0.34558  0.52291  0.47408  Biso   1.000  O
  O48      1.0000 0.07871  0.79476  0.20722  Biso   1.000  O
  O49      1.0000 0.34558  0.64918  0.47408  Biso   1.000  O
  O50      1.0000 0.07871  0.91107  0.20722  Biso   1.000  O
  O51      1.0000 0.46442  0.47143  0.59292  Biso   1.000  O
