data_image0
_cell_length_a       18.2205
_cell_length_b       18.2205
_cell_length_c       18.2205
_cell_angle_alpha    60
_cell_angle_beta     60
_cell_angle_gamma    60

_symmetry_space_group_name_H-M    "P 1"
_symmetry_int_tables_number       1

loop_
  _symmetry_equiv_pos_as_xyz
  'x, y, z'

loop_
  _atom_site_label
  _atom_site_occupancy
  _atom_site_fract_x
  _atom_site_fract_y
  _atom_site_fract_z
  _atom_site_thermal_displace_type
  _atom_site_B_iso_or_equiv
  _atom_site_type_symbol
  Zn1      1.0000 0.29361  0.29361  0.11917  Biso   1.000  Zn
  Zn2      1.0000 0.29361  0.29361  0.29361  Biso   1.000  Zn
  Zn3      1.0000 0.11917  0.29361  0.29361  Biso   1.000  Zn
  Zn4      1.0000 0.29361  0.11917  0.29361  Biso   1.000  Zn
  Zn5      1.0000 0.70639  0.70639  0.88083  Biso   1.000  Zn
  Zn6      1.0000 0.70639  0.70639  0.70639  Biso   1.000  Zn
  Zn7      1.0000 0.70639  0.88083  0.70639  Biso   1.000  Zn
  Zn8      1.0000 0.88083  0.70639  0.70639  Biso   1.000  Zn
  H1       1.0000 0.45580  0.45580  0.93700  Biso   1.000  H
  H2       1.0000 0.45580  0.45580  0.15140  Biso   1.000  H
  H3       1.0000 0.93700  0.15140  0.45580  Biso   1.000  H
  H4       1.0000 0.15140  0.93700  0.45580  Biso   1.000  H
  H5       1.0000 0.45580  0.93700  0.15140  Biso   1.000  H
  H6       1.0000 0.45580  0.15140  0.93700  Biso   1.000  H
  H7       1.0000 0.93700  0.45580  0.45580  Biso   1.000  H
  H8       1.0000 0.15140  0.45580  0.45580  Biso   1.000  H
  H9       1.0000 0.45580  0.15140  0.45580  Biso   1.000  H
  H10      1.0000 0.45580  0.93700  0.45580  Biso   1.000  H
  H11      1.0000 0.93700  0.45580  0.15140  Biso   1.000  H
  H12      1.0000 0.15140  0.45580  0.93700  Biso   1.000  H
  H13      1.0000 0.54420  0.54420  0.06300  Biso   1.000  H
  H14      1.0000 0.54420  0.54420  0.84860  Biso   1.000  H
  H15      1.0000 0.84860  0.06300  0.54420  Biso   1.000  H
  H16      1.0000 0.06300  0.84860  0.54420  Biso   1.000  H
  H17      1.0000 0.06300  0.54420  0.84860  Biso   1.000  H
  H18      1.0000 0.84860  0.54420  0.06300  Biso   1.000  H
  H19      1.0000 0.54420  0.06300  0.54420  Biso   1.000  H
  H20      1.0000 0.54420  0.84860  0.54420  Biso   1.000  H
  H21      1.0000 0.84860  0.54420  0.54420  Biso   1.000  H
  H22      1.0000 0.06300  0.54420  0.54420  Biso   1.000  H
  H23      1.0000 0.54420  0.06300  0.84860  Biso   1.000  H
  H24      1.0000 0.54420  0.84860  0.06300  Biso   1.000  H
  C1       1.0000 0.47350  0.47350  0.96390  Biso   1.000  C
  C2       1.0000 0.47350  0.47350  0.08910  Biso   1.000  C
  C3       1.0000 0.96390  0.08910  0.47350  Biso   1.000  C
  C4       1.0000 0.08910  0.96390  0.47350  Biso   1.000  C
  C5       1.0000 0.47350  0.96390  0.08910  Biso   1.000  C
  C6       1.0000 0.47350  0.08910  0.96390  Biso   1.000  C
  C7       1.0000 0.96390  0.47350  0.47350  Biso   1.000  C
  C8       1.0000 0.08910  0.47350  0.47350  Biso   1.000  C
  C9       1.0000 0.47350  0.08910  0.47350  Biso   1.000  C
  C10      1.0000 0.47350  0.96390  0.47350  Biso   1.000  C
  C11      1.0000 0.96390  0.47350  0.08910  Biso   1.000  C
  C12      1.0000 0.08910  0.47350  0.96390  Biso   1.000  C
  C13      1.0000 0.52650  0.52650  0.03610  Biso   1.000  C
  C14      1.0000 0.52650  0.52650  0.91090  Biso   1.000  C
  C15      1.0000 0.91090  0.03610  0.52650  Biso   1.000  C
  C16      1.0000 0.03610  0.91090  0.52650  Biso   1.000  C
  C17      1.0000 0.03610  0.52650  0.91090  Biso   1.000  C
  C18      1.0000 0.91090  0.52650  0.03610  Biso   1.000  C
  C19      1.0000 0.52650  0.03610  0.52650  Biso   1.000  C
  C20      1.0000 0.52650  0.91090  0.52650  Biso   1.000  C
  C21      1.0000 0.91090  0.52650  0.52650  Biso   1.000  C
  C22      1.0000 0.03610  0.52650  0.52650  Biso   1.000  C
  C23      1.0000 0.52650  0.03610  0.91090  Biso   1.000  C
  C24      1.0000 0.52650  0.91090  0.03610  Biso   1.000  C
  C25      1.0000 0.38850  0.38850  0.11150  Biso   1.000  C
  C26      1.0000 0.44660  0.44660  0.05340  Biso   1.000  C
  C27      1.0000 0.11150  0.11150  0.38850  Biso   1.000  C
  C28      1.0000 0.05340  0.05340  0.44660  Biso   1.000  C
  C29      1.0000 0.38850  0.11150  0.11150  Biso   1.000  C
  C30      1.0000 0.44660  0.05340  0.05340  Biso   1.000  C
  C31      1.0000 0.11150  0.38850  0.38850  Biso   1.000  C
  C32      1.0000 0.05340  0.44660  0.44660  Biso   1.000  C
  C33      1.0000 0.38850  0.11150  0.38850  Biso   1.000  C
  C34      1.0000 0.44660  0.05340  0.44660  Biso   1.000  C
  C35      1.0000 0.11150  0.38850  0.11150  Biso   1.000  C
  C36      1.0000 0.05340  0.44660  0.05340  Biso   1.000  C
  C37      1.0000 0.61150  0.61150  0.88850  Biso   1.000  C
  C38      1.0000 0.55340  0.55340  0.94660  Biso   1.000  C
  C39      1.0000 0.88850  0.88850  0.61150  Biso   1.000  C
  C40      1.0000 0.94660  0.94660  0.55340  Biso   1.000  C
  C41      1.0000 0.88850  0.61150  0.88850  Biso   1.000  C
  C42      1.0000 0.94660  0.55340  0.94660  Biso   1.000  C
  C43      1.0000 0.61150  0.88850  0.61150  Biso   1.000  C
  C44      1.0000 0.55340  0.94660  0.55340  Biso   1.000  C
  C45      1.0000 0.88850  0.61150  0.61150  Biso   1.000  C
  C46      1.0000 0.94660  0.55340  0.55340  Biso   1.000  C
  C47      1.0000 0.61150  0.88850  0.88850  Biso   1.000  C
  C48      1.0000 0.55340  0.94660  0.94660  Biso   1.000  C
  O1       1.0000 0.25000  0.25000  0.25000  Biso   1.000  O
  O2       1.0000 0.75000  0.75000  0.75000  Biso   1.000  O
  O3       1.0000 0.36609  0.36609  0.07351  Biso   1.000  O
  O4       1.0000 0.36609  0.36609  0.19431  Biso   1.000  O
  O5       1.0000 0.07351  0.19431  0.36609  Biso   1.000  O
  O6       1.0000 0.19431  0.07351  0.36609  Biso   1.000  O
  O7       1.0000 0.36609  0.07351  0.19431  Biso   1.000  O
  O8       1.0000 0.36609  0.19431  0.07351  Biso   1.000  O
  O9       1.0000 0.07351  0.36609  0.36609  Biso   1.000  O
  O10      1.0000 0.19431  0.36609  0.36609  Biso   1.000  O
  O11      1.0000 0.36609  0.19431  0.36609  Biso   1.000  O
  O12      1.0000 0.36609  0.07351  0.36609  Biso   1.000  O
  O13      1.0000 0.07351  0.36609  0.19431  Biso   1.000  O
  O14      1.0000 0.19431  0.36609  0.07351  Biso   1.000  O
  O15      1.0000 0.63391  0.63391  0.92649  Biso   1.000  O
  O16      1.0000 0.63391  0.63391  0.80569  Biso   1.000  O
  O17      1.0000 0.80569  0.92649  0.63391  Biso   1.000  O
  O18      1.0000 0.92649  0.80569  0.63391  Biso   1.000  O
  O19      1.0000 0.92649  0.63391  0.80569  Biso   1.000  O
  O20      1.0000 0.80569  0.63391  0.92649  Biso   1.000  O
  O21      1.0000 0.63391  0.92649  0.63391  Biso   1.000  O
  O22      1.0000 0.63391  0.80569  0.63391  Biso   1.000  O
  O23      1.0000 0.80569  0.63391  0.63391  Biso   1.000  O
  O24      1.0000 0.92649  0.63391  0.63391  Biso   1.000  O
  O25      1.0000 0.63391  0.92649  0.80569  Biso   1.000  O
  O26      1.0000 0.63391  0.80569  0.92649  Biso   1.000  O
  Zn9      1.0000 0.47866  0.34630  0.67218  Biso   1.000  Zn
  Zn10     1.0000 0.65311  0.34630  0.49772  Biso   1.000  Zn
  Zn11     1.0000 0.47866  0.34630  0.49772  Biso   1.000  Zn
  Zn12     1.0000 0.47866  0.52076  0.49772  Biso   1.000  Zn
  Zn13     1.0000 0.07214  0.93144  0.90841  Biso   1.000  Zn
  Zn14     1.0000 0.89768  0.93144  0.08286  Biso   1.000  Zn
  Zn15     1.0000 0.07214  0.75699  0.08286  Biso   1.000  Zn
  Zn16     1.0000 0.07214  0.93144  0.08286  Biso   1.000  Zn
  H25      1.0000 0.62204  0.18386  0.85368  Biso   1.000  H
  H26      1.0000 0.83878  0.18386  0.63693  Biso   1.000  H
  H27      1.0000 0.32038  0.48551  0.33528  Biso   1.000  H
  H28      1.0000 0.32038  0.70226  0.33528  Biso   1.000  H
  H29      1.0000 0.32038  0.70226  0.63693  Biso   1.000  H
  H30      1.0000 0.32038  0.48551  0.85368  Biso   1.000  H
  H31      1.0000 0.62204  0.18386  0.33528  Biso   1.000  H
  H32      1.0000 0.83878  0.18386  0.33528  Biso   1.000  H
  H33      1.0000 0.83878  0.48551  0.33528  Biso   1.000  H
  H34      1.0000 0.62204  0.70226  0.33528  Biso   1.000  H
  H35      1.0000 0.32038  0.18386  0.63693  Biso   1.000  H
  H36      1.0000 0.32038  0.18386  0.85368  Biso   1.000  H
  H37      1.0000 0.92876  0.09388  0.72691  Biso   1.000  H
  H38      1.0000 0.71201  0.09388  0.94365  Biso   1.000  H
  H39      1.0000 0.23041  0.57549  0.24531  Biso   1.000  H
  H40      1.0000 0.23041  0.79223  0.24531  Biso   1.000  H
  H41      1.0000 0.23041  0.09388  0.94365  Biso   1.000  H
  H42      1.0000 0.23041  0.09388  0.72691  Biso   1.000  H
  H43      1.0000 0.92876  0.57549  0.24531  Biso   1.000  H
  H44      1.0000 0.71201  0.79223  0.24531  Biso   1.000  H
  H45      1.0000 0.71201  0.09388  0.24531  Biso   1.000  H
  H46      1.0000 0.92876  0.09388  0.24531  Biso   1.000  H
  H47      1.0000 0.23041  0.57549  0.94365  Biso   1.000  H
  H48      1.0000 0.23041  0.79223  0.72691  Biso   1.000  H
  C49      1.0000 0.68563  0.16559  0.82662  Biso   1.000  C
  C50      1.0000 0.81172  0.16559  0.70053  Biso   1.000  C
  C51      1.0000 0.30212  0.54911  0.31701  Biso   1.000  C
  C52      1.0000 0.30212  0.67520  0.31701  Biso   1.000  C
  C53      1.0000 0.30212  0.67520  0.70053  Biso   1.000  C
  C54      1.0000 0.30212  0.54911  0.82662  Biso   1.000  C
  C55      1.0000 0.68563  0.16559  0.31701  Biso   1.000  C
  C56      1.0000 0.81172  0.16559  0.31701  Biso   1.000  C
  C57      1.0000 0.81172  0.54911  0.31701  Biso   1.000  C
  C58      1.0000 0.68563  0.67520  0.31701  Biso   1.000  C
  C59      1.0000 0.30212  0.16559  0.70053  Biso   1.000  C
  C60      1.0000 0.30212  0.16559  0.82662  Biso   1.000  C
  C61      1.0000 0.86516  0.11215  0.75397  Biso   1.000  C
  C62      1.0000 0.73907  0.11215  0.88006  Biso   1.000  C
  C63      1.0000 0.24868  0.60255  0.26357  Biso   1.000  C
  C64      1.0000 0.24868  0.72864  0.26357  Biso   1.000  C
  C65      1.0000 0.24868  0.11215  0.88006  Biso   1.000  C
  C66      1.0000 0.24868  0.11215  0.75397  Biso   1.000  C
  C67      1.0000 0.86516  0.60255  0.26357  Biso   1.000  C
  C68      1.0000 0.73907  0.72864  0.26357  Biso   1.000  C
  C69      1.0000 0.73907  0.11215  0.26357  Biso   1.000  C
  C70      1.0000 0.86516  0.11215  0.26357  Biso   1.000  C
  C71      1.0000 0.24868  0.60255  0.88006  Biso   1.000  C
  C72      1.0000 0.24868  0.72864  0.75397  Biso   1.000  C
  C73      1.0000 0.66125  0.25094  0.68031  Biso   1.000  C
  C74      1.0000 0.71946  0.19273  0.73853  Biso   1.000  C
  C75      1.0000 0.38329  0.52889  0.40236  Biso   1.000  C
  C76      1.0000 0.32508  0.58710  0.34415  Biso   1.000  C
  C77      1.0000 0.38329  0.52889  0.68031  Biso   1.000  C
  C78      1.0000 0.32508  0.58710  0.73853  Biso   1.000  C
  C79      1.0000 0.66125  0.25094  0.40236  Biso   1.000  C
  C80      1.0000 0.71946  0.19273  0.34415  Biso   1.000  C
  C81      1.0000 0.66125  0.52889  0.40236  Biso   1.000  C
  C82      1.0000 0.71946  0.58710  0.34415  Biso   1.000  C
  C83      1.0000 0.38329  0.25094  0.68031  Biso   1.000  C
  C84      1.0000 0.32508  0.19273  0.73853  Biso   1.000  C
  C85      1.0000 0.88955  0.02681  0.90027  Biso   1.000  C
  C86      1.0000 0.83134  0.08502  0.84206  Biso   1.000  C
  C87      1.0000 0.16750  0.74885  0.17823  Biso   1.000  C
  C88      1.0000 0.22571  0.69064  0.23644  Biso   1.000  C
  C89      1.0000 0.16750  0.02681  0.90027  Biso   1.000  C
  C90      1.0000 0.22571  0.08502  0.84206  Biso   1.000  C
  C91      1.0000 0.88955  0.74885  0.17823  Biso   1.000  C
  C92      1.0000 0.83134  0.69064  0.23644  Biso   1.000  C
  C93      1.0000 0.88955  0.02681  0.17823  Biso   1.000  C
  C94      1.0000 0.83134  0.08502  0.23644  Biso   1.000  C
  C95      1.0000 0.16750  0.74885  0.90027  Biso   1.000  C
  C96      1.0000 0.22571  0.69064  0.84206  Biso   1.000  C
  O27      1.0000 0.52227  0.38991  0.54134  Biso   1.000  O
  O28      1.0000 0.02852  0.88783  0.03925  Biso   1.000  O
  O29      1.0000 0.57757  0.27330  0.71927  Biso   1.000  O
  O30      1.0000 0.70020  0.27330  0.59664  Biso   1.000  O
  O31      1.0000 0.40565  0.44521  0.42472  Biso   1.000  O
  O32      1.0000 0.40565  0.56784  0.42472  Biso   1.000  O
  O33      1.0000 0.40565  0.56784  0.59664  Biso   1.000  O
  O34      1.0000 0.40565  0.44521  0.71927  Biso   1.000  O
  O35      1.0000 0.57757  0.27330  0.42472  Biso   1.000  O
  O36      1.0000 0.70020  0.27330  0.42472  Biso   1.000  O
  O37      1.0000 0.70020  0.44521  0.42472  Biso   1.000  O
  O38      1.0000 0.57757  0.56784  0.42472  Biso   1.000  O
  O39      1.0000 0.40565  0.27330  0.59664  Biso   1.000  O
  O40      1.0000 0.40565  0.27330  0.71927  Biso   1.000  O
  O41      1.0000 0.97322  0.00444  0.86132  Biso   1.000  O
  O42      1.0000 0.85060  0.00444  0.98395  Biso   1.000  O
  O43      1.0000 0.14514  0.70990  0.15586  Biso   1.000  O
  O44      1.0000 0.14514  0.83253  0.15586  Biso   1.000  O
  O45      1.0000 0.14514  0.00444  0.98395  Biso   1.000  O
  O46      1.0000 0.14514  0.00444  0.86132  Biso   1.000  O
  O47      1.0000 0.97322  0.70990  0.15586  Biso   1.000  O
  O48      1.0000 0.85060  0.83253  0.15586  Biso   1.000  O
  O49      1.0000 0.85060  0.00444  0.15586  Biso   1.000  O
  O50      1.0000 0.97322  0.00444  0.15586  Biso   1.000  O
  O51      1.0000 0.14514  0.70990  0.98395  Biso   1.000  O
