data_image0
_cell_length_a       18.2888
_cell_length_b       18.2888
_cell_length_c       18.2888
_cell_angle_alpha    60
_cell_angle_beta     60
_cell_angle_gamma    60

_symmetry_space_group_name_H-M    "P 1"
_symmetry_int_tables_number       1

loop_
  _symmetry_equiv_pos_as_xyz
  'x, y, z'

loop_
  _atom_site_label
  _atom_site_occupancy
  _atom_site_fract_x
  _atom_site_fract_y
  _atom_site_fract_z
  _atom_site_thermal_displace_type
  _atom_site_B_iso_or_equiv
  _atom_site_type_symbol
  Zn1      1.0000 0.29344  0.29345  0.11966  Biso   1.000  Zn
  Zn2      1.0000 0.29344  0.29345  0.29345  Biso   1.000  Zn
  Zn3      1.0000 0.11965  0.29345  0.29345  Biso   1.000  Zn
  Zn4      1.0000 0.29344  0.11966  0.29345  Biso   1.000  Zn
  Zn5      1.0000 0.70655  0.70656  0.88034  Biso   1.000  Zn
  Zn6      1.0000 0.70656  0.70655  0.70655  Biso   1.000  Zn
  Zn7      1.0000 0.70655  0.88034  0.70656  Biso   1.000  Zn
  Zn8      1.0000 0.88035  0.70655  0.70655  Biso   1.000  Zn
  H1       1.0000 0.45490  0.45490  0.93490  Biso   1.000  H
  H2       1.0000 0.45490  0.45490  0.15530  Biso   1.000  H
  H3       1.0000 0.93490  0.15530  0.45490  Biso   1.000  H
  H4       1.0000 0.15530  0.93490  0.45490  Biso   1.000  H
  H5       1.0000 0.45490  0.93490  0.15530  Biso   1.000  H
  H6       1.0000 0.45490  0.15530  0.93490  Biso   1.000  H
  H7       1.0000 0.93490  0.45490  0.45490  Biso   1.000  H
  H8       1.0000 0.15530  0.45490  0.45490  Biso   1.000  H
  H9       1.0000 0.45490  0.15530  0.45490  Biso   1.000  H
  H10      1.0000 0.45490  0.93490  0.45490  Biso   1.000  H
  H11      1.0000 0.93490  0.45490  0.15530  Biso   1.000  H
  H12      1.0000 0.15530  0.45490  0.93490  Biso   1.000  H
  H13      1.0000 0.54510  0.54510  0.06510  Biso   1.000  H
  H14      1.0000 0.54510  0.54510  0.84470  Biso   1.000  H
  H15      1.0000 0.84470  0.06510  0.54510  Biso   1.000  H
  H16      1.0000 0.06510  0.84470  0.54510  Biso   1.000  H
  H17      1.0000 0.06510  0.54510  0.84470  Biso   1.000  H
  H18      1.0000 0.84470  0.54510  0.06510  Biso   1.000  H
  H19      1.0000 0.54510  0.06510  0.54510  Biso   1.000  H
  H20      1.0000 0.54510  0.84470  0.54510  Biso   1.000  H
  H21      1.0000 0.84470  0.54510  0.54510  Biso   1.000  H
  H22      1.0000 0.06510  0.54510  0.54510  Biso   1.000  H
  H23      1.0000 0.54510  0.06510  0.84470  Biso   1.000  H
  H24      1.0000 0.54510  0.84470  0.06510  Biso   1.000  H
  C1       1.0000 0.47314  0.47314  0.96174  Biso   1.000  C
  C2       1.0000 0.47314  0.47314  0.09198  Biso   1.000  C
  C3       1.0000 0.96174  0.09198  0.47314  Biso   1.000  C
  C4       1.0000 0.09198  0.96174  0.47314  Biso   1.000  C
  C5       1.0000 0.47314  0.96174  0.09198  Biso   1.000  C
  C6       1.0000 0.47314  0.09198  0.96174  Biso   1.000  C
  C7       1.0000 0.96174  0.47314  0.47314  Biso   1.000  C
  C8       1.0000 0.09198  0.47314  0.47314  Biso   1.000  C
  C9       1.0000 0.47314  0.09198  0.47314  Biso   1.000  C
  C10      1.0000 0.47314  0.96174  0.47314  Biso   1.000  C
  C11      1.0000 0.96174  0.47314  0.09198  Biso   1.000  C
  C12      1.0000 0.09198  0.47314  0.96174  Biso   1.000  C
  C13      1.0000 0.52686  0.52686  0.03826  Biso   1.000  C
  C14      1.0000 0.52686  0.52686  0.90802  Biso   1.000  C
  C15      1.0000 0.90802  0.03826  0.52686  Biso   1.000  C
  C16      1.0000 0.03826  0.90802  0.52686  Biso   1.000  C
  C17      1.0000 0.03826  0.52686  0.90802  Biso   1.000  C
  C18      1.0000 0.90802  0.52686  0.03826  Biso   1.000  C
  C19      1.0000 0.52686  0.03826  0.52686  Biso   1.000  C
  C20      1.0000 0.52686  0.90802  0.52686  Biso   1.000  C
  C21      1.0000 0.90802  0.52686  0.52686  Biso   1.000  C
  C22      1.0000 0.03826  0.52686  0.52686  Biso   1.000  C
  C23      1.0000 0.52686  0.03826  0.90802  Biso   1.000  C
  C24      1.0000 0.52686  0.90802  0.03826  Biso   1.000  C
  C25      1.0000 0.38849  0.38849  0.11151  Biso   1.000  C
  C26      1.0000 0.44624  0.44624  0.05376  Biso   1.000  C
  C27      1.0000 0.11151  0.11151  0.38849  Biso   1.000  C
  C28      1.0000 0.05376  0.05376  0.44624  Biso   1.000  C
  C29      1.0000 0.38849  0.11151  0.11151  Biso   1.000  C
  C30      1.0000 0.44624  0.05376  0.05376  Biso   1.000  C
  C31      1.0000 0.11151  0.38849  0.38849  Biso   1.000  C
  C32      1.0000 0.05376  0.44624  0.44624  Biso   1.000  C
  C33      1.0000 0.38849  0.11151  0.38849  Biso   1.000  C
  C34      1.0000 0.44624  0.05376  0.44624  Biso   1.000  C
  C35      1.0000 0.11151  0.38849  0.11151  Biso   1.000  C
  C36      1.0000 0.05376  0.44624  0.05376  Biso   1.000  C
  C37      1.0000 0.61151  0.61151  0.88849  Biso   1.000  C
  C38      1.0000 0.55376  0.55376  0.94624  Biso   1.000  C
  C39      1.0000 0.88849  0.88849  0.61151  Biso   1.000  C
  C40      1.0000 0.94624  0.94624  0.55376  Biso   1.000  C
  C41      1.0000 0.88849  0.61151  0.88849  Biso   1.000  C
  C42      1.0000 0.94624  0.55376  0.94624  Biso   1.000  C
  C43      1.0000 0.61151  0.88849  0.61151  Biso   1.000  C
  C44      1.0000 0.55376  0.94624  0.55376  Biso   1.000  C
  C45      1.0000 0.88849  0.61151  0.61151  Biso   1.000  C
  C46      1.0000 0.94624  0.55376  0.55376  Biso   1.000  C
  C47      1.0000 0.61151  0.88849  0.88849  Biso   1.000  C
  C48      1.0000 0.55376  0.94624  0.94624  Biso   1.000  C
  O1       1.0000 0.25000  0.25000  0.25000  Biso   1.000  O
  O2       1.0000 0.75000  0.75000  0.75000  Biso   1.000  O
  O3       1.0000 0.36620  0.36620  0.07286  Biso   1.000  O
  O4       1.0000 0.36620  0.36620  0.19474  Biso   1.000  O
  O5       1.0000 0.07286  0.19474  0.36620  Biso   1.000  O
  O6       1.0000 0.19474  0.07286  0.36620  Biso   1.000  O
  O7       1.0000 0.36620  0.07286  0.19474  Biso   1.000  O
  O8       1.0000 0.36620  0.19474  0.07286  Biso   1.000  O
  O9       1.0000 0.07286  0.36620  0.36620  Biso   1.000  O
  O10      1.0000 0.19474  0.36620  0.36620  Biso   1.000  O
  O11      1.0000 0.36620  0.19474  0.36620  Biso   1.000  O
  O12      1.0000 0.36620  0.07286  0.36620  Biso   1.000  O
  O13      1.0000 0.07286  0.36620  0.19474  Biso   1.000  O
  O14      1.0000 0.19474  0.36620  0.07286  Biso   1.000  O
  O15      1.0000 0.63380  0.63380  0.92714  Biso   1.000  O
  O16      1.0000 0.63380  0.63380  0.80526  Biso   1.000  O
  O17      1.0000 0.80526  0.92714  0.63380  Biso   1.000  O
  O18      1.0000 0.92714  0.80526  0.63380  Biso   1.000  O
  O19      1.0000 0.92714  0.63380  0.80526  Biso   1.000  O
  O20      1.0000 0.80526  0.63380  0.92714  Biso   1.000  O
  O21      1.0000 0.63380  0.92714  0.63380  Biso   1.000  O
  O22      1.0000 0.63380  0.80526  0.63380  Biso   1.000  O
  O23      1.0000 0.80526  0.63380  0.63380  Biso   1.000  O
  O24      1.0000 0.92714  0.63380  0.63380  Biso   1.000  O
  O25      1.0000 0.63380  0.92714  0.80526  Biso   1.000  O
  O26      1.0000 0.63380  0.80526  0.92714  Biso   1.000  O
  Zn9      1.0000 0.00550  0.83927  0.13393  Biso   1.000  Zn
  Zn10     1.0000 0.00550  0.01316  0.13393  Biso   1.000  Zn
  Zn11     1.0000 0.83161  0.01316  0.13393  Biso   1.000  Zn
  Zn12     1.0000 0.00550  0.01316  0.96004  Biso   1.000  Zn
  Zn13     1.0000 0.42028  0.42565  0.54642  Biso   1.000  Zn
  Zn14     1.0000 0.42028  0.59954  0.54642  Biso   1.000  Zn
  Zn15     1.0000 0.59417  0.42565  0.54642  Biso   1.000  Zn
  Zn16     1.0000 0.42028  0.42565  0.72031  Biso   1.000  Zn
  H25      1.0000 0.86782  0.65363  0.29560  Biso   1.000  H
  H26      1.0000 0.16717  0.17483  0.99626  Biso   1.000  H
  H27      1.0000 0.64597  0.87549  0.29560  Biso   1.000  H
  H28      1.0000 0.16717  0.17483  0.77440  Biso   1.000  H
  H29      1.0000 0.64597  0.17483  0.99626  Biso   1.000  H
  H30      1.0000 0.16717  0.87549  0.29560  Biso   1.000  H
  H31      1.0000 0.86782  0.17483  0.77440  Biso   1.000  H
  H32      1.0000 0.16717  0.65363  0.29560  Biso   1.000  H
  H33      1.0000 0.16717  0.87549  0.77440  Biso   1.000  H
  H34      1.0000 0.86782  0.17483  0.29560  Biso   1.000  H
  H35      1.0000 0.16717  0.65363  0.99626  Biso   1.000  H
  H36      1.0000 0.64597  0.17483  0.29560  Biso   1.000  H
  H37      1.0000 0.55796  0.26398  0.38475  Biso   1.000  H
  H38      1.0000 0.25862  0.78518  0.68410  Biso   1.000  H
  H39      1.0000 0.77982  0.26398  0.38475  Biso   1.000  H
  H40      1.0000 0.25862  0.56333  0.90595  Biso   1.000  H
  H41      1.0000 0.77982  0.26398  0.68410  Biso   1.000  H
  H42      1.0000 0.25862  0.78518  0.38475  Biso   1.000  H
  H43      1.0000 0.55796  0.26398  0.90595  Biso   1.000  H
  H44      1.0000 0.25862  0.56333  0.38475  Biso   1.000  H
  H45      1.0000 0.25862  0.26398  0.90595  Biso   1.000  H
  H46      1.0000 0.55796  0.78518  0.38475  Biso   1.000  H
  H47      1.0000 0.25862  0.26398  0.68410  Biso   1.000  H
  H48      1.0000 0.77982  0.56333  0.38475  Biso   1.000  H
  C49      1.0000 0.80454  0.68021  0.31395  Biso   1.000  C
  C50      1.0000 0.18552  0.19318  0.93297  Biso   1.000  C
  C51      1.0000 0.67255  0.81220  0.31395  Biso   1.000  C
  C52      1.0000 0.18552  0.19318  0.80098  Biso   1.000  C
  C53      1.0000 0.67255  0.19318  0.93297  Biso   1.000  C
  C54      1.0000 0.18552  0.81220  0.31395  Biso   1.000  C
  C55      1.0000 0.80454  0.19318  0.80098  Biso   1.000  C
  C56      1.0000 0.18552  0.68021  0.31395  Biso   1.000  C
  C57      1.0000 0.18552  0.81220  0.80098  Biso   1.000  C
  C58      1.0000 0.80454  0.19318  0.31395  Biso   1.000  C
  C59      1.0000 0.18552  0.68021  0.93297  Biso   1.000  C
  C60      1.0000 0.67255  0.19318  0.31395  Biso   1.000  C
  C61      1.0000 0.62124  0.24563  0.36640  Biso   1.000  C
  C62      1.0000 0.24027  0.75860  0.74738  Biso   1.000  C
  C63      1.0000 0.75324  0.24563  0.36640  Biso   1.000  C
  C64      1.0000 0.24027  0.62661  0.87937  Biso   1.000  C
  C65      1.0000 0.75324  0.24563  0.74738  Biso   1.000  C
  C66      1.0000 0.24027  0.75860  0.36640  Biso   1.000  C
  C67      1.0000 0.62124  0.24563  0.87937  Biso   1.000  C
  C68      1.0000 0.24027  0.62661  0.36640  Biso   1.000  C
  C69      1.0000 0.24027  0.24563  0.87937  Biso   1.000  C
  C70      1.0000 0.62124  0.75860  0.36640  Biso   1.000  C
  C71      1.0000 0.24027  0.24563  0.74738  Biso   1.000  C
  C72      1.0000 0.75324  0.62661  0.36640  Biso   1.000  C
  C73      1.0000 0.82341  0.83107  0.22908  Biso   1.000  C
  C74      1.0000 0.76554  0.77320  0.28696  Biso   1.000  C
  C75      1.0000 0.10065  0.10831  0.95185  Biso   1.000  C
  C76      1.0000 0.15853  0.16619  0.89397  Biso   1.000  C
  C77      1.0000 0.82341  0.10831  0.95185  Biso   1.000  C
  C78      1.0000 0.76554  0.16619  0.89397  Biso   1.000  C
  C79      1.0000 0.10065  0.83107  0.22908  Biso   1.000  C
  C80      1.0000 0.15853  0.77320  0.28696  Biso   1.000  C
  C81      1.0000 0.10065  0.83107  0.95185  Biso   1.000  C
  C82      1.0000 0.15853  0.77320  0.89397  Biso   1.000  C
  C83      1.0000 0.82341  0.10831  0.22908  Biso   1.000  C
  C84      1.0000 0.76554  0.16619  0.28696  Biso   1.000  C
  C85      1.0000 0.60237  0.33050  0.45127  Biso   1.000  C
  C86      1.0000 0.66025  0.27262  0.39339  Biso   1.000  C
  C87      1.0000 0.32513  0.60774  0.72851  Biso   1.000  C
  C88      1.0000 0.26726  0.66561  0.78639  Biso   1.000  C
  C89      1.0000 0.60237  0.33050  0.72851  Biso   1.000  C
  C90      1.0000 0.66025  0.27262  0.78639  Biso   1.000  C
  C91      1.0000 0.32513  0.60774  0.45127  Biso   1.000  C
  C92      1.0000 0.26726  0.66561  0.39339  Biso   1.000  C
  C93      1.0000 0.32513  0.33050  0.72851  Biso   1.000  C
  C94      1.0000 0.26726  0.27262  0.78639  Biso   1.000  C
  C95      1.0000 0.60237  0.60774  0.45127  Biso   1.000  C
  C96      1.0000 0.66025  0.66561  0.39339  Biso   1.000  C
  O27      1.0000 0.96203  0.96969  0.09046  Biso   1.000  O
  O28      1.0000 0.46375  0.46912  0.58989  Biso   1.000  O
  O29      1.0000 0.90707  0.79183  0.20688  Biso   1.000  O
  O30      1.0000 0.07844  0.08611  0.03550  Biso   1.000  O
  O31      1.0000 0.78417  0.91473  0.20688  Biso   1.000  O
  O32      1.0000 0.07844  0.08611  0.91260  Biso   1.000  O
  O33      1.0000 0.78417  0.08611  0.03550  Biso   1.000  O
  O34      1.0000 0.07844  0.91473  0.20688  Biso   1.000  O
  O35      1.0000 0.90707  0.08611  0.91260  Biso   1.000  O
  O36      1.0000 0.07844  0.79183  0.20688  Biso   1.000  O
  O37      1.0000 0.07844  0.91473  0.91260  Biso   1.000  O
  O38      1.0000 0.90707  0.08611  0.20688  Biso   1.000  O
  O39      1.0000 0.07844  0.79183  0.03550  Biso   1.000  O
  O40      1.0000 0.78417  0.08611  0.20688  Biso   1.000  O
  O41      1.0000 0.51872  0.35271  0.47348  Biso   1.000  O
  O42      1.0000 0.34734  0.64698  0.64485  Biso   1.000  O
  O43      1.0000 0.64162  0.35271  0.47348  Biso   1.000  O
  O44      1.0000 0.34734  0.52408  0.76775  Biso   1.000  O
  O45      1.0000 0.64162  0.35271  0.64485  Biso   1.000  O
  O46      1.0000 0.34734  0.64698  0.47348  Biso   1.000  O
  O47      1.0000 0.51872  0.35271  0.76775  Biso   1.000  O
  O48      1.0000 0.34734  0.52408  0.47348  Biso   1.000  O
  O49      1.0000 0.34734  0.35271  0.76775  Biso   1.000  O
  O50      1.0000 0.51872  0.64698  0.47348  Biso   1.000  O
  O51      1.0000 0.34734  0.35271  0.64485  Biso   1.000  O
