data_image0
_cell_length_a       18.3083
_cell_length_b       18.3083
_cell_length_c       18.3083
_cell_angle_alpha    60
_cell_angle_beta     60
_cell_angle_gamma    60

_symmetry_space_group_name_H-M    "P 1"
_symmetry_int_tables_number       1

loop_
  _symmetry_equiv_pos_as_xyz
  'x, y, z'

loop_
  _atom_site_label
  _atom_site_occupancy
  _atom_site_fract_x
  _atom_site_fract_y
  _atom_site_fract_z
  _atom_site_thermal_displace_type
  _atom_site_B_iso_or_equiv
  _atom_site_type_symbol
  C1       1.0000 0.29342  0.29341  0.11976  Biso   1.000  C
  C2       1.0000 0.29342  0.29341  0.29341  Biso   1.000  C
  C3       1.0000 0.11977  0.29341  0.29341  Biso   1.000  C
  C4       1.0000 0.29342  0.11976  0.29341  Biso   1.000  C
  C5       1.0000 0.70658  0.70659  0.88024  Biso   1.000  C
  C6       1.0000 0.70658  0.70659  0.70659  Biso   1.000  C
  C7       1.0000 0.70658  0.88024  0.70659  Biso   1.000  C
  C8       1.0000 0.88023  0.70659  0.70659  Biso   1.000  C
  C9       1.0000 0.45480  0.45480  0.93480  Biso   1.000  C
  C10      1.0000 0.45480  0.45480  0.15560  Biso   1.000  C
  C11      1.0000 0.93480  0.15560  0.45480  Biso   1.000  C
  C12      1.0000 0.15560  0.93480  0.45480  Biso   1.000  C
  C13      1.0000 0.45480  0.93480  0.15560  Biso   1.000  C
  C14      1.0000 0.45480  0.15560  0.93480  Biso   1.000  C
  C15      1.0000 0.93480  0.45480  0.45480  Biso   1.000  C
  C16      1.0000 0.15560  0.45480  0.45480  Biso   1.000  C
  C17      1.0000 0.45480  0.15560  0.45480  Biso   1.000  C
  C18      1.0000 0.45480  0.93480  0.45480  Biso   1.000  C
  C19      1.0000 0.93480  0.45480  0.15560  Biso   1.000  C
  C20      1.0000 0.15560  0.45480  0.93480  Biso   1.000  C
  C21      1.0000 0.54520  0.54520  0.06520  Biso   1.000  C
  C22      1.0000 0.54520  0.54520  0.84440  Biso   1.000  C
  C23      1.0000 0.84440  0.06520  0.54520  Biso   1.000  C
  C24      1.0000 0.06520  0.84440  0.54520  Biso   1.000  C
  C25      1.0000 0.06520  0.54520  0.84440  Biso   1.000  C
  C26      1.0000 0.84440  0.54520  0.06520  Biso   1.000  C
  C27      1.0000 0.54520  0.06520  0.54520  Biso   1.000  C
  C28      1.0000 0.54520  0.84440  0.54520  Biso   1.000  C
  C29      1.0000 0.84440  0.54520  0.54520  Biso   1.000  C
  C30      1.0000 0.06520  0.54520  0.54520  Biso   1.000  C
  C31      1.0000 0.54520  0.06520  0.84440  Biso   1.000  C
  C32      1.0000 0.54520  0.84440  0.06520  Biso   1.000  C
  C33      1.0000 0.47317  0.47317  0.96131  Biso   1.000  C
  C34      1.0000 0.47317  0.47317  0.09235  Biso   1.000  C
  C35      1.0000 0.96131  0.09235  0.47317  Biso   1.000  C
  C36      1.0000 0.09235  0.96131  0.47317  Biso   1.000  C
  C37      1.0000 0.47317  0.96131  0.09235  Biso   1.000  C
  C38      1.0000 0.47317  0.09235  0.96131  Biso   1.000  C
  C39      1.0000 0.96131  0.47317  0.47317  Biso   1.000  C
  C40      1.0000 0.09235  0.47317  0.47317  Biso   1.000  C
  C41      1.0000 0.47317  0.09235  0.47317  Biso   1.000  C
  C42      1.0000 0.47317  0.96131  0.47317  Biso   1.000  C
  C43      1.0000 0.96131  0.47317  0.09235  Biso   1.000  C
  C44      1.0000 0.09235  0.47317  0.96131  Biso   1.000  C
  C45      1.0000 0.52683  0.52683  0.03869  Biso   1.000  C
  C46      1.0000 0.52683  0.52683  0.90765  Biso   1.000  C
  C47      1.0000 0.90765  0.03869  0.52683  Biso   1.000  C
  C48      1.0000 0.03869  0.90765  0.52683  Biso   1.000  C
  C49      1.0000 0.03869  0.52683  0.90765  Biso   1.000  C
  C50      1.0000 0.90765  0.52683  0.03869  Biso   1.000  C
  C51      1.0000 0.52683  0.03869  0.52683  Biso   1.000  C
  C52      1.0000 0.52683  0.90765  0.52683  Biso   1.000  C
  C53      1.0000 0.90765  0.52683  0.52683  Biso   1.000  C
  C54      1.0000 0.03869  0.52683  0.52683  Biso   1.000  C
  C55      1.0000 0.52683  0.03869  0.90765  Biso   1.000  C
  C56      1.0000 0.52683  0.90765  0.03869  Biso   1.000  C
  C57      1.0000 0.38843  0.38843  0.11157  Biso   1.000  C
  C58      1.0000 0.44641  0.44641  0.05359  Biso   1.000  C
  C59      1.0000 0.11157  0.11157  0.38843  Biso   1.000  C
  C60      1.0000 0.05359  0.05359  0.44641  Biso   1.000  C
  C61      1.0000 0.38843  0.11157  0.11157  Biso   1.000  C
  C62      1.0000 0.44641  0.05359  0.05359  Biso   1.000  C
  C63      1.0000 0.11157  0.38843  0.38843  Biso   1.000  C
  C64      1.0000 0.05359  0.44641  0.44641  Biso   1.000  C
  C65      1.0000 0.38843  0.11157  0.38843  Biso   1.000  C
  C66      1.0000 0.44641  0.05359  0.44641  Biso   1.000  C
  C67      1.0000 0.11157  0.38843  0.11157  Biso   1.000  C
  C68      1.0000 0.05359  0.44641  0.05359  Biso   1.000  C
  C69      1.0000 0.61157  0.61157  0.88843  Biso   1.000  C
  C70      1.0000 0.55359  0.55359  0.94641  Biso   1.000  C
  C71      1.0000 0.88843  0.88843  0.61157  Biso   1.000  C
  C72      1.0000 0.94641  0.94641  0.55359  Biso   1.000  C
  C73      1.0000 0.88843  0.61157  0.88843  Biso   1.000  C
  C74      1.0000 0.94641  0.55359  0.94641  Biso   1.000  C
  C75      1.0000 0.61157  0.88843  0.61157  Biso   1.000  C
  C76      1.0000 0.55359  0.94641  0.55359  Biso   1.000  C
  C77      1.0000 0.88843  0.61157  0.61157  Biso   1.000  C
  C78      1.0000 0.94641  0.55359  0.55359  Biso   1.000  C
  C79      1.0000 0.61157  0.88843  0.88843  Biso   1.000  C
  C80      1.0000 0.55359  0.94641  0.94641  Biso   1.000  C
  C81      1.0000 0.25000  0.25000  0.25000  Biso   1.000  C
  C82      1.0000 0.75000  0.75000  0.75000  Biso   1.000  C
  C83      1.0000 0.36629  0.36629  0.07237  Biso   1.000  C
  C84      1.0000 0.36629  0.36629  0.19505  Biso   1.000  C
  C85      1.0000 0.07237  0.19505  0.36629  Biso   1.000  C
  C86      1.0000 0.19505  0.07237  0.36629  Biso   1.000  C
  C87      1.0000 0.36629  0.07237  0.19505  Biso   1.000  C
  C88      1.0000 0.36629  0.19505  0.07237  Biso   1.000  C
  C89      1.0000 0.07237  0.36629  0.36629  Biso   1.000  C
  C90      1.0000 0.19505  0.36629  0.36629  Biso   1.000  C
  C91      1.0000 0.36629  0.19505  0.36629  Biso   1.000  C
  C92      1.0000 0.36629  0.07237  0.36629  Biso   1.000  C
  C93      1.0000 0.07237  0.36629  0.19505  Biso   1.000  C
  C94      1.0000 0.19505  0.36629  0.07237  Biso   1.000  C
  C95      1.0000 0.63371  0.63371  0.92763  Biso   1.000  C
  C96      1.0000 0.63371  0.63371  0.80495  Biso   1.000  C
  C97      1.0000 0.80495  0.92763  0.63371  Biso   1.000  C
  C98      1.0000 0.92763  0.80495  0.63371  Biso   1.000  C
  C99      1.0000 0.92763  0.63371  0.80495  Biso   1.000  C
  C100     1.0000 0.80495  0.63371  0.92763  Biso   1.000  C
  C101     1.0000 0.63371  0.92763  0.63371  Biso   1.000  C
  C102     1.0000 0.63371  0.80495  0.63371  Biso   1.000  C
  C103     1.0000 0.80495  0.63371  0.63371  Biso   1.000  C
  C104     1.0000 0.92763  0.63371  0.63371  Biso   1.000  C
  C105     1.0000 0.63371  0.92763  0.80495  Biso   1.000  C
  C106     1.0000 0.63371  0.80495  0.92763  Biso   1.000  C
  O1       1.0000 0.09943  0.06624  0.93654  Biso   1.000  O
  O2       1.0000 0.92631  0.06624  0.10966  Biso   1.000  O
  O3       1.0000 0.92631  0.23936  0.93654  Biso   1.000  O
  O4       1.0000 0.92631  0.06624  0.93654  Biso   1.000  O
  O5       1.0000 0.33629  0.65395  0.52425  Biso   1.000  O
  O6       1.0000 0.50941  0.65395  0.35113  Biso   1.000  O
  O7       1.0000 0.50941  0.65395  0.52425  Biso   1.000  O
  O8       1.0000 0.50941  0.48083  0.52425  Biso   1.000  O
  O9       1.0000 0.28386  0.90479  0.77509  Biso   1.000  O
  O10      1.0000 0.76256  0.20470  0.29640  Biso   1.000  O
  O11      1.0000 0.76256  0.42610  0.07500  Biso   1.000  O
  O12      1.0000 0.06246  0.90479  0.77509  Biso   1.000  O
  O13      1.0000 0.76256  0.90479  0.29640  Biso   1.000  O
  O14      1.0000 0.06246  0.42610  0.77509  Biso   1.000  O
  O15      1.0000 0.28386  0.20470  0.77509  Biso   1.000  O
  O16      1.0000 0.76256  0.90479  0.07500  Biso   1.000  O
  O17      1.0000 0.76256  0.42610  0.77509  Biso   1.000  O
  O18      1.0000 0.28386  0.90479  0.07500  Biso   1.000  O
  O19      1.0000 0.06246  0.90479  0.29640  Biso   1.000  O
  O20      1.0000 0.76256  0.20470  0.77509  Biso   1.000  O
  O21      1.0000 0.15185  0.51549  0.68570  Biso   1.000  O
  O22      1.0000 0.67316  0.81540  0.16439  Biso   1.000  O
  O23      1.0000 0.67316  0.81540  0.38579  Biso   1.000  O
  O24      1.0000 0.37326  0.29409  0.68570  Biso   1.000  O
  O25      1.0000 0.67316  0.51549  0.16439  Biso   1.000  O
  O26      1.0000 0.37326  0.81540  0.68570  Biso   1.000  O
  O27      1.0000 0.15185  0.81540  0.68570  Biso   1.000  O
  O28      1.0000 0.67316  0.29409  0.38579  Biso   1.000  O
  O29      1.0000 0.67316  0.51549  0.68570  Biso   1.000  O
  O30      1.0000 0.15185  0.81540  0.38579  Biso   1.000  O
  O31      1.0000 0.37326  0.81540  0.16439  Biso   1.000  O
  O32      1.0000 0.67316  0.29409  0.68570  Biso   1.000  O
  O33      1.0000 0.25782  0.88693  0.75723  Biso   1.000  O
  O34      1.0000 0.74470  0.26646  0.27036  Biso   1.000  O
  O35      1.0000 0.74470  0.40006  0.13675  Biso   1.000  O
  O36      1.0000 0.12422  0.88693  0.75723  Biso   1.000  O
  O37      1.0000 0.74470  0.88693  0.27036  Biso   1.000  O
  O38      1.0000 0.12422  0.40006  0.75723  Biso   1.000  O
  O39      1.0000 0.25782  0.26646  0.75723  Biso   1.000  O
  O40      1.0000 0.74470  0.88693  0.13675  Biso   1.000  O
  O41      1.0000 0.74470  0.40006  0.75723  Biso   1.000  O
  O42      1.0000 0.25782  0.88693  0.13675  Biso   1.000  O
  O43      1.0000 0.12422  0.88693  0.27036  Biso   1.000  O
  O44      1.0000 0.74470  0.26646  0.75723  Biso   1.000  O
  O45      1.0000 0.17789  0.45374  0.70356  Biso   1.000  O
  O46      1.0000 0.69102  0.83326  0.19043  Biso   1.000  O
  O47      1.0000 0.69102  0.83326  0.32404  Biso   1.000  O
  O48      1.0000 0.31150  0.32013  0.70356  Biso   1.000  O
  O49      1.0000 0.69102  0.45374  0.19043  Biso   1.000  O
  O50      1.0000 0.31150  0.83326  0.70356  Biso   1.000  O
  O51      1.0000 0.17789  0.83326  0.70356  Biso   1.000  O
  O52      1.0000 0.69102  0.32013  0.32404  Biso   1.000  O
  O53      1.0000 0.69102  0.45374  0.70356  Biso   1.000  O
  O54      1.0000 0.17789  0.83326  0.32404  Biso   1.000  O
  O55      1.0000 0.31150  0.83326  0.19043  Biso   1.000  O
  O56      1.0000 0.69102  0.32013  0.70356  Biso   1.000  O
  O57      1.0000 0.10797  0.97114  0.84144  Biso   1.000  O
  O58      1.0000 0.16534  0.91377  0.78407  Biso   1.000  O
  O59      1.0000 0.83121  0.24790  0.11820  Biso   1.000  O
  O60      1.0000 0.77385  0.30527  0.17556  Biso   1.000  O
  O61      1.0000 0.83121  0.97114  0.11820  Biso   1.000  O
  O62      1.0000 0.77385  0.91377  0.17557  Biso   1.000  O
  O63      1.0000 0.10797  0.24790  0.84144  Biso   1.000  O
  O64      1.0000 0.16534  0.30527  0.78407  Biso   1.000  O
  O65      1.0000 0.83121  0.24790  0.84144  Biso   1.000  O
  O66      1.0000 0.77385  0.30527  0.78407  Biso   1.000  O
  O67      1.0000 0.10797  0.97114  0.11820  Biso   1.000  O
  O68      1.0000 0.16534  0.91377  0.17556  Biso   1.000  O
  O69      1.0000 0.32775  0.47229  0.61935  Biso   1.000  O
  O70      1.0000 0.27038  0.41493  0.67672  Biso   1.000  O
  O71      1.0000 0.60451  0.74905  0.34259  Biso   1.000  O
  O72      1.0000 0.66187  0.80642  0.28523  Biso   1.000  O
  O73      1.0000 0.60451  0.47229  0.34259  Biso   1.000  O
  O74      1.0000 0.66187  0.41493  0.28523  Biso   1.000  O
  O75      1.0000 0.32775  0.74905  0.61935  Biso   1.000  O
  O76      1.0000 0.27038  0.80642  0.67672  Biso   1.000  O
  O77      1.0000 0.60451  0.47229  0.61935  Biso   1.000  O
  O78      1.0000 0.66187  0.41493  0.67672  Biso   1.000  O
  O79      1.0000 0.32775  0.74905  0.34259  Biso   1.000  O
  O80      1.0000 0.27038  0.80642  0.28523  Biso   1.000  O
  O81      1.0000 0.96959  0.10952  0.97982  Biso   1.000  O
  O82      1.0000 0.46613  0.61067  0.48097  Biso   1.000  O
  O83      1.0000 0.14895  0.99379  0.86409  Biso   1.000  O
  O84      1.0000 0.85386  0.16163  0.15917  Biso   1.000  O
  O85      1.0000 0.85386  0.28887  0.03193  Biso   1.000  O
  O86      1.0000 0.02170  0.99379  0.86409  Biso   1.000  O
  O87      1.0000 0.85386  0.99379  0.15917  Biso   1.000  O
  O88      1.0000 0.02170  0.28887  0.86409  Biso   1.000  O
  O89      1.0000 0.14895  0.16163  0.86409  Biso   1.000  O
  O90      1.0000 0.85386  0.99379  0.03193  Biso   1.000  O
  O91      1.0000 0.85386  0.28887  0.86409  Biso   1.000  O
  O92      1.0000 0.14895  0.99379  0.03193  Biso   1.000  O
  O93      1.0000 0.02170  0.99379  0.15917  Biso   1.000  O
  O94      1.0000 0.85386  0.16163  0.86409  Biso   1.000  O
  O95      1.0000 0.28677  0.55856  0.59671  Biso   1.000  O
  O96      1.0000 0.58186  0.72641  0.30162  Biso   1.000  O
  O97      1.0000 0.58186  0.72641  0.42886  Biso   1.000  O
  O98      1.0000 0.41402  0.43132  0.59671  Biso   1.000  O
  O99      1.0000 0.58186  0.55856  0.30162  Biso   1.000  O
  O100     1.0000 0.41402  0.72641  0.59671  Biso   1.000  O
  O101     1.0000 0.28677  0.72641  0.59671  Biso   1.000  O
  O102     1.0000 0.58186  0.43132  0.42886  Biso   1.000  O
  O103     1.0000 0.58186  0.55856  0.59671  Biso   1.000  O
  O104     1.0000 0.28677  0.72641  0.42886  Biso   1.000  O
  O105     1.0000 0.41402  0.72641  0.30162  Biso   1.000  O
