data_image0
_cell_length_a       18.228
_cell_length_b       18.228
_cell_length_c       18.228
_cell_angle_alpha    60
_cell_angle_beta     60
_cell_angle_gamma    60

_symmetry_space_group_name_H-M    "P 1"
_symmetry_int_tables_number       1

loop_
  _symmetry_equiv_pos_as_xyz
  'x, y, z'

loop_
  _atom_site_label
  _atom_site_occupancy
  _atom_site_fract_x
  _atom_site_fract_y
  _atom_site_fract_z
  _atom_site_thermal_displace_type
  _atom_site_B_iso_or_equiv
  _atom_site_type_symbol
  Zn1      1.0000 0.29358  0.29359  0.11924  Biso   1.000  Zn
  Zn2      1.0000 0.29358  0.29359  0.29359  Biso   1.000  Zn
  Zn3      1.0000 0.11923  0.29359  0.29359  Biso   1.000  Zn
  Zn4      1.0000 0.29358  0.11924  0.29359  Biso   1.000  Zn
  Zn5      1.0000 0.70642  0.70641  0.88076  Biso   1.000  Zn
  Zn6      1.0000 0.70642  0.70641  0.70641  Biso   1.000  Zn
  Zn7      1.0000 0.70642  0.88076  0.70641  Biso   1.000  Zn
  Zn8      1.0000 0.88077  0.70641  0.70641  Biso   1.000  Zn
  H1       1.0000 0.45570  0.45570  0.93670  Biso   1.000  H
  H2       1.0000 0.45570  0.45570  0.15190  Biso   1.000  H
  H3       1.0000 0.93670  0.15190  0.45570  Biso   1.000  H
  H4       1.0000 0.15190  0.93670  0.45570  Biso   1.000  H
  H5       1.0000 0.45570  0.93670  0.15190  Biso   1.000  H
  H6       1.0000 0.45570  0.15190  0.93670  Biso   1.000  H
  H7       1.0000 0.93670  0.45570  0.45570  Biso   1.000  H
  H8       1.0000 0.15190  0.45570  0.45570  Biso   1.000  H
  H9       1.0000 0.45570  0.15190  0.45570  Biso   1.000  H
  H10      1.0000 0.45570  0.93670  0.45570  Biso   1.000  H
  H11      1.0000 0.93670  0.45570  0.15190  Biso   1.000  H
  H12      1.0000 0.15190  0.45570  0.93670  Biso   1.000  H
  H13      1.0000 0.54430  0.54430  0.06330  Biso   1.000  H
  H14      1.0000 0.54430  0.54430  0.84810  Biso   1.000  H
  H15      1.0000 0.84810  0.06330  0.54430  Biso   1.000  H
  H16      1.0000 0.06330  0.84810  0.54430  Biso   1.000  H
  H17      1.0000 0.06330  0.54430  0.84810  Biso   1.000  H
  H18      1.0000 0.84810  0.54430  0.06330  Biso   1.000  H
  H19      1.0000 0.54430  0.06330  0.54430  Biso   1.000  H
  H20      1.0000 0.54430  0.84810  0.54430  Biso   1.000  H
  H21      1.0000 0.84810  0.54430  0.54430  Biso   1.000  H
  H22      1.0000 0.06330  0.54430  0.54430  Biso   1.000  H
  H23      1.0000 0.54430  0.06330  0.84810  Biso   1.000  H
  H24      1.0000 0.54430  0.84810  0.06330  Biso   1.000  H
  C1       1.0000 0.47340  0.47340  0.96356  Biso   1.000  C
  C2       1.0000 0.47340  0.47340  0.08964  Biso   1.000  C
  C3       1.0000 0.96356  0.08964  0.47340  Biso   1.000  C
  C4       1.0000 0.08964  0.96356  0.47340  Biso   1.000  C
  C5       1.0000 0.47340  0.96356  0.08964  Biso   1.000  C
  C6       1.0000 0.47340  0.08964  0.96356  Biso   1.000  C
  C7       1.0000 0.96356  0.47340  0.47340  Biso   1.000  C
  C8       1.0000 0.08964  0.47340  0.47340  Biso   1.000  C
  C9       1.0000 0.47340  0.08964  0.47340  Biso   1.000  C
  C10      1.0000 0.47340  0.96356  0.47340  Biso   1.000  C
  C11      1.0000 0.96356  0.47340  0.08964  Biso   1.000  C
  C12      1.0000 0.08964  0.47340  0.96356  Biso   1.000  C
  C13      1.0000 0.52660  0.52660  0.03644  Biso   1.000  C
  C14      1.0000 0.52660  0.52660  0.91036  Biso   1.000  C
  C15      1.0000 0.91036  0.03644  0.52660  Biso   1.000  C
  C16      1.0000 0.03644  0.91036  0.52660  Biso   1.000  C
  C17      1.0000 0.03644  0.52660  0.91036  Biso   1.000  C
  C18      1.0000 0.91036  0.52660  0.03644  Biso   1.000  C
  C19      1.0000 0.52660  0.03644  0.52660  Biso   1.000  C
  C20      1.0000 0.52660  0.91036  0.52660  Biso   1.000  C
  C21      1.0000 0.91036  0.52660  0.52660  Biso   1.000  C
  C22      1.0000 0.03644  0.52660  0.52660  Biso   1.000  C
  C23      1.0000 0.52660  0.03644  0.91036  Biso   1.000  C
  C24      1.0000 0.52660  0.91036  0.03644  Biso   1.000  C
  C25      1.0000 0.38850  0.38850  0.11150  Biso   1.000  C
  C26      1.0000 0.44610  0.44610  0.05390  Biso   1.000  C
  C27      1.0000 0.11150  0.11150  0.38850  Biso   1.000  C
  C28      1.0000 0.05390  0.05390  0.44610  Biso   1.000  C
  C29      1.0000 0.38850  0.11150  0.11150  Biso   1.000  C
  C30      1.0000 0.44610  0.05390  0.05390  Biso   1.000  C
  C31      1.0000 0.11150  0.38850  0.38850  Biso   1.000  C
  C32      1.0000 0.05390  0.44610  0.44610  Biso   1.000  C
  C33      1.0000 0.38850  0.11150  0.38850  Biso   1.000  C
  C34      1.0000 0.44610  0.05390  0.44610  Biso   1.000  C
  C35      1.0000 0.11150  0.38850  0.11150  Biso   1.000  C
  C36      1.0000 0.05390  0.44610  0.05390  Biso   1.000  C
  C37      1.0000 0.61150  0.61150  0.88850  Biso   1.000  C
  C38      1.0000 0.55390  0.55390  0.94610  Biso   1.000  C
  C39      1.0000 0.88850  0.88850  0.61150  Biso   1.000  C
  C40      1.0000 0.94610  0.94610  0.55390  Biso   1.000  C
  C41      1.0000 0.88850  0.61150  0.88850  Biso   1.000  C
  C42      1.0000 0.94610  0.55390  0.94610  Biso   1.000  C
  C43      1.0000 0.61150  0.88850  0.61150  Biso   1.000  C
  C44      1.0000 0.55390  0.94610  0.55390  Biso   1.000  C
  C45      1.0000 0.88850  0.61150  0.61150  Biso   1.000  C
  C46      1.0000 0.94610  0.55390  0.55390  Biso   1.000  C
  C47      1.0000 0.61150  0.88850  0.88850  Biso   1.000  C
  C48      1.0000 0.55390  0.94610  0.94610  Biso   1.000  C
  O1       1.0000 0.25000  0.25000  0.25000  Biso   1.000  O
  O2       1.0000 0.75000  0.75000  0.75000  Biso   1.000  O
  O3       1.0000 0.36610  0.36610  0.07322  Biso   1.000  O
  O4       1.0000 0.36610  0.36610  0.19458  Biso   1.000  O
  O5       1.0000 0.07322  0.19458  0.36610  Biso   1.000  O
  O6       1.0000 0.19458  0.07322  0.36610  Biso   1.000  O
  O7       1.0000 0.36610  0.07322  0.19458  Biso   1.000  O
  O8       1.0000 0.36610  0.19458  0.07322  Biso   1.000  O
  O9       1.0000 0.07322  0.36610  0.36610  Biso   1.000  O
  O10      1.0000 0.19458  0.36610  0.36610  Biso   1.000  O
  O11      1.0000 0.36610  0.19458  0.36610  Biso   1.000  O
  O12      1.0000 0.36610  0.07322  0.36610  Biso   1.000  O
  O13      1.0000 0.07322  0.36610  0.19458  Biso   1.000  O
  O14      1.0000 0.19458  0.36610  0.07322  Biso   1.000  O
  O15      1.0000 0.63390  0.63390  0.92678  Biso   1.000  O
  O16      1.0000 0.63390  0.63390  0.80542  Biso   1.000  O
  O17      1.0000 0.80542  0.92678  0.63390  Biso   1.000  O
  O18      1.0000 0.92678  0.80542  0.63390  Biso   1.000  O
  O19      1.0000 0.92678  0.63390  0.80542  Biso   1.000  O
  O20      1.0000 0.80542  0.63390  0.92678  Biso   1.000  O
  O21      1.0000 0.63390  0.92678  0.63390  Biso   1.000  O
  O22      1.0000 0.63390  0.80542  0.63390  Biso   1.000  O
  O23      1.0000 0.80542  0.63390  0.63390  Biso   1.000  O
  O24      1.0000 0.92678  0.63390  0.63390  Biso   1.000  O
  O25      1.0000 0.63390  0.92678  0.80542  Biso   1.000  O
  O26      1.0000 0.63390  0.80542  0.92678  Biso   1.000  O
  Zn9      1.0000 0.49542  0.64819  0.33595  Biso   1.000  Zn
  Zn10     1.0000 0.49542  0.64819  0.50986  Biso   1.000  Zn
  Zn11     1.0000 0.32151  0.64819  0.50986  Biso   1.000  Zn
  Zn12     1.0000 0.49542  0.47428  0.50986  Biso   1.000  Zn
  Zn13     1.0000 0.91080  0.06359  0.09917  Biso   1.000  Zn
  Zn14     1.0000 0.91080  0.06359  0.92526  Biso   1.000  Zn
  Zn15     1.0000 0.91080  0.23750  0.92526  Biso   1.000  Zn
  Zn16     1.0000 0.08471  0.06359  0.92526  Biso   1.000  Zn
  H25      1.0000 0.35828  0.80925  0.15097  Biso   1.000  H
  H26      1.0000 0.65647  0.51105  0.67092  Biso   1.000  H
  H27      1.0000 0.13653  0.80925  0.37273  Biso   1.000  H
  H28      1.0000 0.65647  0.28930  0.67092  Biso   1.000  H
  H29      1.0000 0.35828  0.28930  0.67092  Biso   1.000  H
  H30      1.0000 0.65647  0.80925  0.15097  Biso   1.000  H
  H31      1.0000 0.13653  0.51105  0.67092  Biso   1.000  H
  H32      1.0000 0.65647  0.80925  0.37273  Biso   1.000  H
  H33      1.0000 0.35828  0.80925  0.67092  Biso   1.000  H
  H34      1.0000 0.65647  0.28930  0.37273  Biso   1.000  H
  H35      1.0000 0.13653  0.80925  0.67092  Biso   1.000  H
  H36      1.0000 0.65647  0.51105  0.15097  Biso   1.000  H
  H37      1.0000 0.74975  0.20072  0.28415  Biso   1.000  H
  H38      1.0000 0.04794  0.90253  0.76420  Biso   1.000  H
  H39      1.0000 0.74975  0.42247  0.06239  Biso   1.000  H
  H40      1.0000 0.26970  0.90253  0.76420  Biso   1.000  H
  H41      1.0000 0.26970  0.20072  0.76420  Biso   1.000  H
  H42      1.0000 0.74975  0.90253  0.28415  Biso   1.000  H
  H43      1.0000 0.04794  0.42247  0.76420  Biso   1.000  H
  H44      1.0000 0.74975  0.90253  0.06239  Biso   1.000  H
  H45      1.0000 0.74975  0.20072  0.76420  Biso   1.000  H
  H46      1.0000 0.26970  0.90253  0.06239  Biso   1.000  H
  H47      1.0000 0.74975  0.42247  0.76420  Biso   1.000  H
  H48      1.0000 0.04794  0.90253  0.28415  Biso   1.000  H
  C49      1.0000 0.29479  0.82763  0.17770  Biso   1.000  C
  C50      1.0000 0.67486  0.44756  0.68930  Biso   1.000  C
  C51      1.0000 0.16325  0.82763  0.30924  Biso   1.000  C
  C52      1.0000 0.67486  0.31602  0.68930  Biso   1.000  C
  C53      1.0000 0.29479  0.31602  0.68930  Biso   1.000  C
  C54      1.0000 0.67486  0.82763  0.17770  Biso   1.000  C
  C55      1.0000 0.16325  0.44756  0.68930  Biso   1.000  C
  C56      1.0000 0.67486  0.82763  0.30924  Biso   1.000  C
  C57      1.0000 0.29479  0.82763  0.68930  Biso   1.000  C
  C58      1.0000 0.67486  0.31602  0.30924  Biso   1.000  C
  C59      1.0000 0.16325  0.82763  0.68930  Biso   1.000  C
  C60      1.0000 0.67486  0.44756  0.17770  Biso   1.000  C
  C61      1.0000 0.73137  0.26421  0.25742  Biso   1.000  C
  C62      1.0000 0.11143  0.88414  0.74582  Biso   1.000  C
  C63      1.0000 0.73137  0.39575  0.12588  Biso   1.000  C
  C64      1.0000 0.24297  0.88414  0.74582  Biso   1.000  C
  C65      1.0000 0.24297  0.26421  0.74582  Biso   1.000  C
  C66      1.0000 0.73137  0.88414  0.25742  Biso   1.000  C
  C67      1.0000 0.11143  0.39575  0.74582  Biso   1.000  C
  C68      1.0000 0.73137  0.88414  0.12588  Biso   1.000  C
  C69      1.0000 0.73137  0.26421  0.74582  Biso   1.000  C
  C70      1.0000 0.24297  0.88414  0.12588  Biso   1.000  C
  C71      1.0000 0.73137  0.39575  0.74582  Biso   1.000  C
  C72      1.0000 0.11143  0.88414  0.25742  Biso   1.000  C
  C73      1.0000 0.25606  0.80059  0.27051  Biso   1.000  C
  C74      1.0000 0.31419  0.74246  0.32864  Biso   1.000  C
  C75      1.0000 0.64781  0.40884  0.66226  Biso   1.000  C
  C76      1.0000 0.58969  0.46696  0.60414  Biso   1.000  C
  C77      1.0000 0.25606  0.40884  0.66226  Biso   1.000  C
  C78      1.0000 0.31419  0.46696  0.60414  Biso   1.000  C
  C79      1.0000 0.64781  0.80059  0.27051  Biso   1.000  C
  C80      1.0000 0.58969  0.74246  0.32864  Biso   1.000  C
  C81      1.0000 0.25606  0.80059  0.66226  Biso   1.000  C
  C82      1.0000 0.31419  0.74246  0.60414  Biso   1.000  C
  C83      1.0000 0.64781  0.40884  0.27051  Biso   1.000  C
  C84      1.0000 0.58969  0.46696  0.32864  Biso   1.000  C
  C85      1.0000 0.75841  0.30294  0.16461  Biso   1.000  C
  C86      1.0000 0.81654  0.24481  0.10648  Biso   1.000  C
  C87      1.0000 0.15016  0.91119  0.77286  Biso   1.000  C
  C88      1.0000 0.09204  0.96931  0.83098  Biso   1.000  C
  C89      1.0000 0.15016  0.30294  0.77286  Biso   1.000  C
  C90      1.0000 0.09204  0.24481  0.83098  Biso   1.000  C
  C91      1.0000 0.75841  0.91118  0.16461  Biso   1.000  C
  C92      1.0000 0.81654  0.96931  0.10648  Biso   1.000  C
  C93      1.0000 0.75841  0.30294  0.77286  Biso   1.000  C
  C94      1.0000 0.81654  0.24481  0.83098  Biso   1.000  C
  C95      1.0000 0.15016  0.91118  0.16461  Biso   1.000  C
  C96      1.0000 0.09204  0.96931  0.10648  Biso   1.000  C
  O27      1.0000 0.45194  0.60471  0.46639  Biso   1.000  O
  O28      1.0000 0.95429  0.10706  0.96873  Biso   1.000  O
  O29      1.0000 0.40027  0.72052  0.28645  Biso   1.000  O
  O30      1.0000 0.56774  0.55305  0.58219  Biso   1.000  O
  O31      1.0000 0.27200  0.72052  0.41472  Biso   1.000  O
  O32      1.0000 0.56774  0.42477  0.58219  Biso   1.000  O
  O33      1.0000 0.40027  0.42477  0.58219  Biso   1.000  O
  O34      1.0000 0.56774  0.72052  0.28645  Biso   1.000  O
  O35      1.0000 0.27200  0.55305  0.58219  Biso   1.000  O
  O36      1.0000 0.56774  0.72052  0.41472  Biso   1.000  O
  O37      1.0000 0.40027  0.72052  0.58219  Biso   1.000  O
  O38      1.0000 0.56774  0.42477  0.41472  Biso   1.000  O
  O39      1.0000 0.27200  0.72052  0.58219  Biso   1.000  O
  O40      1.0000 0.56774  0.55305  0.28645  Biso   1.000  O
  O41      1.0000 0.83848  0.15873  0.14868  Biso   1.000  O
  O42      1.0000 0.00595  0.99126  0.85293  Biso   1.000  O
  O43      1.0000 0.83848  0.28700  0.02040  Biso   1.000  O
  O44      1.0000 0.13423  0.99126  0.85293  Biso   1.000  O
  O45      1.0000 0.13423  0.15873  0.85293  Biso   1.000  O
  O46      1.0000 0.83848  0.99126  0.14868  Biso   1.000  O
  O47      1.0000 0.00595  0.28700  0.85293  Biso   1.000  O
  O48      1.0000 0.83848  0.99126  0.02040  Biso   1.000  O
  O49      1.0000 0.83848  0.15873  0.85293  Biso   1.000  O
  O50      1.0000 0.13423  0.99126  0.02040  Biso   1.000  O
  O51      1.0000 0.83848  0.28700  0.85293  Biso   1.000  O
