data_image0
_cell_length_a       18.3017
_cell_length_b       18.3017
_cell_length_c       18.3017
_cell_angle_alpha    60
_cell_angle_beta     60
_cell_angle_gamma    60

_symmetry_space_group_name_H-M    "P 1"
_symmetry_int_tables_number       1

loop_
  _symmetry_equiv_pos_as_xyz
  'x, y, z'

loop_
  _atom_site_label
  _atom_site_occupancy
  _atom_site_fract_x
  _atom_site_fract_y
  _atom_site_fract_z
  _atom_site_thermal_displace_type
  _atom_site_B_iso_or_equiv
  _atom_site_type_symbol
  C1       1.0000 0.29342  0.29343  0.11972  Biso   1.000  C
  C2       1.0000 0.29343  0.29342  0.29343  Biso   1.000  C
  C3       1.0000 0.11972  0.29343  0.29342  Biso   1.000  C
  C4       1.0000 0.29343  0.11972  0.29343  Biso   1.000  C
  C5       1.0000 0.70657  0.70658  0.88028  Biso   1.000  C
  C6       1.0000 0.70657  0.70658  0.70657  Biso   1.000  C
  C7       1.0000 0.70658  0.88028  0.70657  Biso   1.000  C
  C8       1.0000 0.88029  0.70657  0.70657  Biso   1.000  C
  C9       1.0000 0.45510  0.45510  0.93470  Biso   1.000  C
  C10      1.0000 0.45510  0.45510  0.15510  Biso   1.000  C
  C11      1.0000 0.93470  0.15510  0.45510  Biso   1.000  C
  C12      1.0000 0.15510  0.93470  0.45510  Biso   1.000  C
  C13      1.0000 0.45510  0.93470  0.15510  Biso   1.000  C
  C14      1.0000 0.45510  0.15510  0.93470  Biso   1.000  C
  C15      1.0000 0.93470  0.45510  0.45510  Biso   1.000  C
  C16      1.0000 0.15510  0.45510  0.45510  Biso   1.000  C
  C17      1.0000 0.45510  0.15510  0.45510  Biso   1.000  C
  C18      1.0000 0.45510  0.93470  0.45510  Biso   1.000  C
  C19      1.0000 0.93470  0.45510  0.15510  Biso   1.000  C
  C20      1.0000 0.15510  0.45510  0.93470  Biso   1.000  C
  C21      1.0000 0.54490  0.54490  0.06530  Biso   1.000  C
  C22      1.0000 0.54490  0.54490  0.84490  Biso   1.000  C
  C23      1.0000 0.84490  0.06530  0.54490  Biso   1.000  C
  C24      1.0000 0.06530  0.84490  0.54490  Biso   1.000  C
  C25      1.0000 0.06530  0.54490  0.84490  Biso   1.000  C
  C26      1.0000 0.84490  0.54490  0.06530  Biso   1.000  C
  C27      1.0000 0.54490  0.06530  0.54490  Biso   1.000  C
  C28      1.0000 0.54490  0.84490  0.54490  Biso   1.000  C
  C29      1.0000 0.84490  0.54490  0.54490  Biso   1.000  C
  C30      1.0000 0.06530  0.54490  0.54490  Biso   1.000  C
  C31      1.0000 0.54490  0.06530  0.84490  Biso   1.000  C
  C32      1.0000 0.54490  0.84490  0.06530  Biso   1.000  C
  C33      1.0000 0.47334  0.47334  0.96156  Biso   1.000  C
  C34      1.0000 0.47334  0.47334  0.09176  Biso   1.000  C
  C35      1.0000 0.96156  0.09176  0.47334  Biso   1.000  C
  C36      1.0000 0.09176  0.96156  0.47334  Biso   1.000  C
  C37      1.0000 0.47334  0.96156  0.09176  Biso   1.000  C
  C38      1.0000 0.47334  0.09176  0.96156  Biso   1.000  C
  C39      1.0000 0.96156  0.47334  0.47334  Biso   1.000  C
  C40      1.0000 0.09176  0.47334  0.47334  Biso   1.000  C
  C41      1.0000 0.47334  0.09176  0.47334  Biso   1.000  C
  C42      1.0000 0.47334  0.96156  0.47334  Biso   1.000  C
  C43      1.0000 0.96156  0.47334  0.09176  Biso   1.000  C
  C44      1.0000 0.09176  0.47334  0.96156  Biso   1.000  C
  C45      1.0000 0.52666  0.52666  0.03844  Biso   1.000  C
  C46      1.0000 0.52666  0.52666  0.90824  Biso   1.000  C
  C47      1.0000 0.90824  0.03844  0.52666  Biso   1.000  C
  C48      1.0000 0.03844  0.90824  0.52666  Biso   1.000  C
  C49      1.0000 0.03844  0.52666  0.90824  Biso   1.000  C
  C50      1.0000 0.90824  0.52666  0.03844  Biso   1.000  C
  C51      1.0000 0.52666  0.03844  0.52666  Biso   1.000  C
  C52      1.0000 0.52666  0.90824  0.52666  Biso   1.000  C
  C53      1.0000 0.90824  0.52666  0.52666  Biso   1.000  C
  C54      1.0000 0.03844  0.52666  0.52666  Biso   1.000  C
  C55      1.0000 0.52666  0.03844  0.90824  Biso   1.000  C
  C56      1.0000 0.52666  0.90824  0.03844  Biso   1.000  C
  C57      1.0000 0.38843  0.38843  0.11157  Biso   1.000  C
  C58      1.0000 0.44642  0.44642  0.05358  Biso   1.000  C
  C59      1.0000 0.11157  0.11157  0.38843  Biso   1.000  C
  C60      1.0000 0.05358  0.05358  0.44642  Biso   1.000  C
  C61      1.0000 0.38843  0.11157  0.11157  Biso   1.000  C
  C62      1.0000 0.44642  0.05358  0.05358  Biso   1.000  C
  C63      1.0000 0.11157  0.38843  0.38843  Biso   1.000  C
  C64      1.0000 0.05358  0.44642  0.44642  Biso   1.000  C
  C65      1.0000 0.38843  0.11157  0.38843  Biso   1.000  C
  C66      1.0000 0.44642  0.05358  0.44642  Biso   1.000  C
  C67      1.0000 0.11157  0.38843  0.11157  Biso   1.000  C
  C68      1.0000 0.05358  0.44642  0.05358  Biso   1.000  C
  C69      1.0000 0.61157  0.61157  0.88843  Biso   1.000  C
  C70      1.0000 0.55358  0.55358  0.94642  Biso   1.000  C
  C71      1.0000 0.88843  0.88843  0.61157  Biso   1.000  C
  C72      1.0000 0.94642  0.94642  0.55358  Biso   1.000  C
  C73      1.0000 0.88843  0.61157  0.88843  Biso   1.000  C
  C74      1.0000 0.94642  0.55358  0.94642  Biso   1.000  C
  C75      1.0000 0.61157  0.88843  0.61157  Biso   1.000  C
  C76      1.0000 0.55358  0.94642  0.55358  Biso   1.000  C
  C77      1.0000 0.88843  0.61157  0.61157  Biso   1.000  C
  C78      1.0000 0.94642  0.55358  0.55358  Biso   1.000  C
  C79      1.0000 0.61157  0.88843  0.88843  Biso   1.000  C
  C80      1.0000 0.55358  0.94642  0.94642  Biso   1.000  C
  C81      1.0000 0.25000  0.25000  0.25000  Biso   1.000  C
  C82      1.0000 0.75000  0.75000  0.75000  Biso   1.000  C
  C83      1.0000 0.36609  0.36609  0.07295  Biso   1.000  C
  C84      1.0000 0.36609  0.36609  0.19487  Biso   1.000  C
  C85      1.0000 0.07295  0.19487  0.36609  Biso   1.000  C
  C86      1.0000 0.19487  0.07295  0.36609  Biso   1.000  C
  C87      1.0000 0.36609  0.07295  0.19487  Biso   1.000  C
  C88      1.0000 0.36609  0.19487  0.07295  Biso   1.000  C
  C89      1.0000 0.07295  0.36609  0.36609  Biso   1.000  C
  C90      1.0000 0.19487  0.36609  0.36609  Biso   1.000  C
  C91      1.0000 0.36609  0.19487  0.36609  Biso   1.000  C
  C92      1.0000 0.36609  0.07295  0.36609  Biso   1.000  C
  C93      1.0000 0.07295  0.36609  0.19487  Biso   1.000  C
  C94      1.0000 0.19487  0.36609  0.07295  Biso   1.000  C
  C95      1.0000 0.63391  0.63391  0.92705  Biso   1.000  C
  C96      1.0000 0.63391  0.63391  0.80513  Biso   1.000  C
  C97      1.0000 0.80513  0.92705  0.63391  Biso   1.000  C
  C98      1.0000 0.92705  0.80513  0.63391  Biso   1.000  C
  C99      1.0000 0.92705  0.63391  0.80513  Biso   1.000  C
  C100     1.0000 0.80513  0.63391  0.92705  Biso   1.000  C
  C101     1.0000 0.63391  0.92705  0.63391  Biso   1.000  C
  C102     1.0000 0.63391  0.80513  0.63391  Biso   1.000  C
  C103     1.0000 0.80513  0.63391  0.63391  Biso   1.000  C
  C104     1.0000 0.92705  0.63391  0.63391  Biso   1.000  C
  C105     1.0000 0.63391  0.92705  0.80513  Biso   1.000  C
  C106     1.0000 0.63391  0.80513  0.92705  Biso   1.000  C
  O1       1.0000 0.00550  0.83868  0.13384  Biso   1.000  O
  O2       1.0000 0.00550  0.01592  0.13384  Biso   1.000  O
  O3       1.0000 0.82826  0.01592  0.13384  Biso   1.000  O
  O4       1.0000 0.00550  0.01592  0.95660  Biso   1.000  O
  O5       1.0000 0.41718  0.42720  0.54512  Biso   1.000  O
  O6       1.0000 0.41718  0.60443  0.54512  Biso   1.000  O
  O7       1.0000 0.59442  0.42720  0.54512  Biso   1.000  O
  O8       1.0000 0.41718  0.42720  0.72236  Biso   1.000  O
  O9       1.0000 0.85917  0.65955  0.29657  Biso   1.000  O
  O10      1.0000 0.16823  0.17865  0.98751  Biso   1.000  O
  O11      1.0000 0.64912  0.86959  0.29657  Biso   1.000  O
  O12      1.0000 0.16823  0.17865  0.77747  Biso   1.000  O
  O13      1.0000 0.64912  0.17865  0.98751  Biso   1.000  O
  O14      1.0000 0.16823  0.86959  0.29657  Biso   1.000  O
  O15      1.0000 0.85917  0.17865  0.77747  Biso   1.000  O
  O16      1.0000 0.16823  0.65955  0.29657  Biso   1.000  O
  O17      1.0000 0.16823  0.86959  0.77747  Biso   1.000  O
  O18      1.0000 0.85917  0.17865  0.29657  Biso   1.000  O
  O19      1.0000 0.16823  0.65955  0.98751  Biso   1.000  O
  O20      1.0000 0.64912  0.17865  0.29657  Biso   1.000  O
  O21      1.0000 0.56351  0.26447  0.38239  Biso   1.000  O
  O22      1.0000 0.25445  0.78357  0.69145  Biso   1.000  O
  O23      1.0000 0.77355  0.26447  0.38239  Biso   1.000  O
  O24      1.0000 0.25445  0.57353  0.90149  Biso   1.000  O
  O25      1.0000 0.77355  0.26447  0.69145  Biso   1.000  O
  O26      1.0000 0.25445  0.78357  0.38239  Biso   1.000  O
  O27      1.0000 0.56351  0.26447  0.90149  Biso   1.000  O
  O28      1.0000 0.25445  0.57353  0.38239  Biso   1.000  O
  O29      1.0000 0.25445  0.26447  0.90149  Biso   1.000  O
  O30      1.0000 0.56351  0.78357  0.38239  Biso   1.000  O
  O31      1.0000 0.25445  0.26447  0.69145  Biso   1.000  O
  O32      1.0000 0.77355  0.57353  0.38239  Biso   1.000  O
  O33      1.0000 0.80676  0.68235  0.31138  Biso   1.000  O
  O34      1.0000 0.18303  0.19345  0.93510  Biso   1.000  O
  O35      1.0000 0.67193  0.81718  0.31138  Biso   1.000  O
  O36      1.0000 0.18303  0.19345  0.80027  Biso   1.000  O
  O37      1.0000 0.67193  0.19345  0.93510  Biso   1.000  O
  O38      1.0000 0.18303  0.81718  0.31138  Biso   1.000  O
  O39      1.0000 0.80676  0.19345  0.80027  Biso   1.000  O
  O40      1.0000 0.18303  0.68235  0.31138  Biso   1.000  O
  O41      1.0000 0.18303  0.81718  0.80027  Biso   1.000  O
  O42      1.0000 0.80676  0.19345  0.31138  Biso   1.000  O
  O43      1.0000 0.18303  0.68235  0.93510  Biso   1.000  O
  O44      1.0000 0.67193  0.19345  0.31138  Biso   1.000  O
  O45      1.0000 0.61592  0.24966  0.36758  Biso   1.000  O
  O46      1.0000 0.23965  0.76077  0.74386  Biso   1.000  O
  O47      1.0000 0.75075  0.24966  0.36758  Biso   1.000  O
  O48      1.0000 0.23965  0.62594  0.87869  Biso   1.000  O
  O49      1.0000 0.75075  0.24966  0.74386  Biso   1.000  O
  O50      1.0000 0.23965  0.76077  0.36758  Biso   1.000  O
  O51      1.0000 0.61592  0.24966  0.87869  Biso   1.000  O
  O52      1.0000 0.23965  0.62594  0.36758  Biso   1.000  O
  O53      1.0000 0.23965  0.24966  0.87869  Biso   1.000  O
  O54      1.0000 0.61592  0.76077  0.36758  Biso   1.000  O
  O55      1.0000 0.23965  0.24966  0.74386  Biso   1.000  O
  O56      1.0000 0.75075  0.62594  0.36758  Biso   1.000  O
  O57      1.0000 0.82576  0.83618  0.22496  Biso   1.000  O
  O58      1.0000 0.76525  0.77567  0.28547  Biso   1.000  O
  O59      1.0000 0.09662  0.10704  0.95410  Biso   1.000  O
  O60      1.0000 0.15713  0.16755  0.89359  Biso   1.000  O
  O61      1.0000 0.82576  0.10704  0.95410  Biso   1.000  O
  O62      1.0000 0.76525  0.16755  0.89359  Biso   1.000  O
  O63      1.0000 0.09662  0.83618  0.22496  Biso   1.000  O
  O64      1.0000 0.15713  0.77567  0.28547  Biso   1.000  O
  O65      1.0000 0.09662  0.83618  0.95410  Biso   1.000  O
  O66      1.0000 0.15713  0.77567  0.89359  Biso   1.000  O
  O67      1.0000 0.82576  0.10704  0.22496  Biso   1.000  O
  O68      1.0000 0.76525  0.16755  0.28547  Biso   1.000  O
  O69      1.0000 0.59692  0.33608  0.45400  Biso   1.000  O
  O70      1.0000 0.65743  0.27557  0.39349  Biso   1.000  O
  O71      1.0000 0.32606  0.60694  0.72486  Biso   1.000  O
  O72      1.0000 0.26555  0.66745  0.78537  Biso   1.000  O
  O73      1.0000 0.59692  0.33608  0.72486  Biso   1.000  O
  O74      1.0000 0.65743  0.27557  0.78537  Biso   1.000  O
  O75      1.0000 0.32606  0.60694  0.45400  Biso   1.000  O
  O76      1.0000 0.26555  0.66745  0.39349  Biso   1.000  O
  O77      1.0000 0.32606  0.33608  0.72486  Biso   1.000  O
  O78      1.0000 0.26555  0.27557  0.78537  Biso   1.000  O
  O79      1.0000 0.59692  0.60694  0.45400  Biso   1.000  O
  O80      1.0000 0.65743  0.66745  0.39349  Biso   1.000  O
  O81      1.0000 0.96119  0.97161  0.08953  Biso   1.000  O
  O82      1.0000 0.46149  0.47151  0.58943  Biso   1.000  O
  O83      1.0000 0.90758  0.79237  0.20595  Biso   1.000  O
  O84      1.0000 0.07761  0.08803  0.03592  Biso   1.000  O
  O85      1.0000 0.78195  0.91800  0.20595  Biso   1.000  O
  O86      1.0000 0.07761  0.08803  0.91029  Biso   1.000  O
  O87      1.0000 0.78195  0.08803  0.03592  Biso   1.000  O
  O88      1.0000 0.07761  0.91800  0.20595  Biso   1.000  O
  O89      1.0000 0.90758  0.08803  0.91029  Biso   1.000  O
  O90      1.0000 0.07761  0.79237  0.20595  Biso   1.000  O
  O91      1.0000 0.07761  0.91800  0.91029  Biso   1.000  O
  O92      1.0000 0.90758  0.08803  0.20595  Biso   1.000  O
  O93      1.0000 0.07761  0.79237  0.03592  Biso   1.000  O
  O94      1.0000 0.78195  0.08803  0.20595  Biso   1.000  O
  O95      1.0000 0.51510  0.35508  0.47301  Biso   1.000  O
  O96      1.0000 0.34507  0.65074  0.64304  Biso   1.000  O
  O97      1.0000 0.64073  0.35508  0.47301  Biso   1.000  O
  O98      1.0000 0.34507  0.52512  0.76867  Biso   1.000  O
  O99      1.0000 0.64073  0.35508  0.64304  Biso   1.000  O
  O100     1.0000 0.34507  0.65074  0.47301  Biso   1.000  O
  O101     1.0000 0.51510  0.35508  0.76867  Biso   1.000  O
  O102     1.0000 0.34507  0.52512  0.47301  Biso   1.000  O
  O103     1.0000 0.34507  0.35508  0.76867  Biso   1.000  O
  O104     1.0000 0.51510  0.65074  0.47301  Biso   1.000  O
  O105     1.0000 0.34507  0.35508  0.64304  Biso   1.000  O
