data_image0
_cell_length_a       18.2507
_cell_length_b       18.2507
_cell_length_c       18.2507
_cell_angle_alpha    60
_cell_angle_beta     60
_cell_angle_gamma    60

_symmetry_space_group_name_H-M    "P 1"
_symmetry_int_tables_number       1

loop_
  _symmetry_equiv_pos_as_xyz
  'x, y, z'

loop_
  _atom_site_label
  _atom_site_occupancy
  _atom_site_fract_x
  _atom_site_fract_y
  _atom_site_fract_z
  _atom_site_thermal_displace_type
  _atom_site_B_iso_or_equiv
  _atom_site_type_symbol
  C1       1.0000 0.29354  0.29353  0.11940  Biso   1.000  C
  C2       1.0000 0.29354  0.29353  0.29353  Biso   1.000  C
  C3       1.0000 0.11941  0.29353  0.29353  Biso   1.000  C
  C4       1.0000 0.29354  0.11940  0.29353  Biso   1.000  C
  C5       1.0000 0.70646  0.70647  0.88060  Biso   1.000  C
  C6       1.0000 0.70646  0.70647  0.70647  Biso   1.000  C
  C7       1.0000 0.70646  0.88060  0.70647  Biso   1.000  C
  C8       1.0000 0.88059  0.70647  0.70647  Biso   1.000  C
  C9       1.0000 0.45580  0.45580  0.93620  Biso   1.000  C
  C10      1.0000 0.45580  0.45580  0.15220  Biso   1.000  C
  C11      1.0000 0.93620  0.15220  0.45580  Biso   1.000  C
  C12      1.0000 0.15220  0.93620  0.45580  Biso   1.000  C
  C13      1.0000 0.45580  0.93620  0.15220  Biso   1.000  C
  C14      1.0000 0.45580  0.15220  0.93620  Biso   1.000  C
  C15      1.0000 0.93620  0.45580  0.45580  Biso   1.000  C
  C16      1.0000 0.15220  0.45580  0.45580  Biso   1.000  C
  C17      1.0000 0.45580  0.15220  0.45580  Biso   1.000  C
  C18      1.0000 0.45580  0.93620  0.45580  Biso   1.000  C
  C19      1.0000 0.93620  0.45580  0.15220  Biso   1.000  C
  C20      1.0000 0.15220  0.45580  0.93620  Biso   1.000  C
  C21      1.0000 0.54420  0.54420  0.06380  Biso   1.000  C
  C22      1.0000 0.54420  0.54420  0.84780  Biso   1.000  C
  C23      1.0000 0.84780  0.06380  0.54420  Biso   1.000  C
  C24      1.0000 0.06380  0.84780  0.54420  Biso   1.000  C
  C25      1.0000 0.06380  0.54420  0.84780  Biso   1.000  C
  C26      1.0000 0.84780  0.54420  0.06380  Biso   1.000  C
  C27      1.0000 0.54420  0.06380  0.54420  Biso   1.000  C
  C28      1.0000 0.54420  0.84780  0.54420  Biso   1.000  C
  C29      1.0000 0.84780  0.54420  0.54420  Biso   1.000  C
  C30      1.0000 0.06380  0.54420  0.54420  Biso   1.000  C
  C31      1.0000 0.54420  0.06380  0.84780  Biso   1.000  C
  C32      1.0000 0.54420  0.84780  0.06380  Biso   1.000  C
  C33      1.0000 0.47349  0.47349  0.96297  Biso   1.000  C
  C34      1.0000 0.47349  0.47349  0.09005  Biso   1.000  C
  C35      1.0000 0.96297  0.09005  0.47349  Biso   1.000  C
  C36      1.0000 0.09005  0.96297  0.47349  Biso   1.000  C
  C37      1.0000 0.47349  0.96297  0.09005  Biso   1.000  C
  C38      1.0000 0.47349  0.09005  0.96297  Biso   1.000  C
  C39      1.0000 0.96297  0.47349  0.47349  Biso   1.000  C
  C40      1.0000 0.09005  0.47349  0.47349  Biso   1.000  C
  C41      1.0000 0.47349  0.09005  0.47349  Biso   1.000  C
  C42      1.0000 0.47349  0.96297  0.47349  Biso   1.000  C
  C43      1.0000 0.96297  0.47349  0.09005  Biso   1.000  C
  C44      1.0000 0.09005  0.47349  0.96297  Biso   1.000  C
  C45      1.0000 0.52651  0.52651  0.03703  Biso   1.000  C
  C46      1.0000 0.52651  0.52651  0.90995  Biso   1.000  C
  C47      1.0000 0.90995  0.03703  0.52651  Biso   1.000  C
  C48      1.0000 0.03703  0.90995  0.52651  Biso   1.000  C
  C49      1.0000 0.03703  0.52651  0.90995  Biso   1.000  C
  C50      1.0000 0.90995  0.52651  0.03703  Biso   1.000  C
  C51      1.0000 0.52651  0.03703  0.52651  Biso   1.000  C
  C52      1.0000 0.52651  0.90995  0.52651  Biso   1.000  C
  C53      1.0000 0.90995  0.52651  0.52651  Biso   1.000  C
  C54      1.0000 0.03703  0.52651  0.52651  Biso   1.000  C
  C55      1.0000 0.52651  0.03703  0.90995  Biso   1.000  C
  C56      1.0000 0.52651  0.90995  0.03703  Biso   1.000  C
  C57      1.0000 0.38859  0.38859  0.11141  Biso   1.000  C
  C58      1.0000 0.44630  0.44630  0.05370  Biso   1.000  C
  C59      1.0000 0.11141  0.11141  0.38859  Biso   1.000  C
  C60      1.0000 0.05370  0.05370  0.44630  Biso   1.000  C
  C61      1.0000 0.38859  0.11141  0.11141  Biso   1.000  C
  C62      1.0000 0.44630  0.05370  0.05370  Biso   1.000  C
  C63      1.0000 0.11141  0.38859  0.38859  Biso   1.000  C
  C64      1.0000 0.05370  0.44630  0.44630  Biso   1.000  C
  C65      1.0000 0.38859  0.11141  0.38859  Biso   1.000  C
  C66      1.0000 0.44630  0.05370  0.44630  Biso   1.000  C
  C67      1.0000 0.11141  0.38859  0.11141  Biso   1.000  C
  C68      1.0000 0.05370  0.44630  0.05370  Biso   1.000  C
  C69      1.0000 0.61141  0.61141  0.88859  Biso   1.000  C
  C70      1.0000 0.55370  0.55370  0.94630  Biso   1.000  C
  C71      1.0000 0.88859  0.88859  0.61141  Biso   1.000  C
  C72      1.0000 0.94630  0.94630  0.55370  Biso   1.000  C
  C73      1.0000 0.88859  0.61141  0.88859  Biso   1.000  C
  C74      1.0000 0.94630  0.55370  0.94630  Biso   1.000  C
  C75      1.0000 0.61141  0.88859  0.61141  Biso   1.000  C
  C76      1.0000 0.55370  0.94630  0.55370  Biso   1.000  C
  C77      1.0000 0.88859  0.61141  0.61141  Biso   1.000  C
  C78      1.0000 0.94630  0.55370  0.55370  Biso   1.000  C
  C79      1.0000 0.61141  0.88859  0.88859  Biso   1.000  C
  C80      1.0000 0.55370  0.94630  0.94630  Biso   1.000  C
  C81      1.0000 0.25000  0.25000  0.25000  Biso   1.000  C
  C82      1.0000 0.75000  0.75000  0.75000  Biso   1.000  C
  C83      1.0000 0.36605  0.36605  0.07321  Biso   1.000  C
  C84      1.0000 0.36605  0.36605  0.19469  Biso   1.000  C
  C85      1.0000 0.07321  0.19469  0.36605  Biso   1.000  C
  C86      1.0000 0.19469  0.07321  0.36605  Biso   1.000  C
  C87      1.0000 0.36605  0.07321  0.19469  Biso   1.000  C
  C88      1.0000 0.36605  0.19469  0.07321  Biso   1.000  C
  C89      1.0000 0.07321  0.36605  0.36605  Biso   1.000  C
  C90      1.0000 0.19469  0.36605  0.36605  Biso   1.000  C
  C91      1.0000 0.36605  0.19469  0.36605  Biso   1.000  C
  C92      1.0000 0.36605  0.07321  0.36605  Biso   1.000  C
  C93      1.0000 0.07321  0.36605  0.19469  Biso   1.000  C
  C94      1.0000 0.19469  0.36605  0.07321  Biso   1.000  C
  C95      1.0000 0.63395  0.63395  0.92679  Biso   1.000  C
  C96      1.0000 0.63395  0.63395  0.80531  Biso   1.000  C
  C97      1.0000 0.80531  0.92679  0.63395  Biso   1.000  C
  C98      1.0000 0.92679  0.80531  0.63395  Biso   1.000  C
  C99      1.0000 0.92679  0.63395  0.80531  Biso   1.000  C
  C100     1.0000 0.80531  0.63395  0.92679  Biso   1.000  C
  C101     1.0000 0.63395  0.92679  0.63395  Biso   1.000  C
  C102     1.0000 0.63395  0.80531  0.63395  Biso   1.000  C
  C103     1.0000 0.80531  0.63395  0.63395  Biso   1.000  C
  C104     1.0000 0.92679  0.63395  0.63395  Biso   1.000  C
  C105     1.0000 0.63395  0.92679  0.80531  Biso   1.000  C
  C106     1.0000 0.63395  0.80531  0.92679  Biso   1.000  C
  O1       1.0000 0.47786  0.34573  0.67107  Biso   1.000  O
  O2       1.0000 0.65199  0.34573  0.49694  Biso   1.000  O
  O3       1.0000 0.47786  0.34573  0.49694  Biso   1.000  O
  O4       1.0000 0.47786  0.51986  0.49694  Biso   1.000  O
  O5       1.0000 0.06372  0.93321  0.91028  Biso   1.000  O
  O6       1.0000 0.88959  0.93321  0.08441  Biso   1.000  O
  O7       1.0000 0.06372  0.75908  0.08441  Biso   1.000  O
  O8       1.0000 0.06372  0.93321  0.08441  Biso   1.000  O
  O9       1.0000 0.61891  0.18343  0.85463  Biso   1.000  O
  O10      1.0000 0.83475  0.18343  0.63879  Biso   1.000  O
  O11      1.0000 0.31476  0.48759  0.33464  Biso   1.000  O
  O12      1.0000 0.31476  0.70342  0.33464  Biso   1.000  O
  O13      1.0000 0.31476  0.70342  0.63879  Biso   1.000  O
  O14      1.0000 0.31476  0.48759  0.85463  Biso   1.000  O
  O15      1.0000 0.61891  0.18343  0.33464  Biso   1.000  O
  O16      1.0000 0.83475  0.18343  0.33464  Biso   1.000  O
  O17      1.0000 0.83475  0.48759  0.33464  Biso   1.000  O
  O18      1.0000 0.61891  0.70342  0.33464  Biso   1.000  O
  O19      1.0000 0.31476  0.18343  0.63879  Biso   1.000  O
  O20      1.0000 0.31476  0.18343  0.85463  Biso   1.000  O
  O21      1.0000 0.92267  0.09550  0.72672  Biso   1.000  O
  O22      1.0000 0.70684  0.09550  0.94256  Biso   1.000  O
  O23      1.0000 0.22683  0.57551  0.24671  Biso   1.000  O
  O24      1.0000 0.22683  0.79135  0.24671  Biso   1.000  O
  O25      1.0000 0.22683  0.09550  0.94256  Biso   1.000  O
  O26      1.0000 0.22683  0.09550  0.72672  Biso   1.000  O
  O27      1.0000 0.92267  0.57551  0.24671  Biso   1.000  O
  O28      1.0000 0.70684  0.79135  0.24671  Biso   1.000  O
  O29      1.0000 0.70684  0.09550  0.24671  Biso   1.000  O
  O30      1.0000 0.92267  0.09550  0.24671  Biso   1.000  O
  O31      1.0000 0.22683  0.57551  0.94256  Biso   1.000  O
  O32      1.0000 0.22683  0.79135  0.72672  Biso   1.000  O
  O33      1.0000 0.68086  0.16585  0.82785  Biso   1.000  O
  O34      1.0000 0.80797  0.16585  0.70074  Biso   1.000  O
  O35      1.0000 0.29717  0.54953  0.31705  Biso   1.000  O
  O36      1.0000 0.29717  0.67664  0.31705  Biso   1.000  O
  O37      1.0000 0.29717  0.67664  0.70074  Biso   1.000  O
  O38      1.0000 0.29717  0.54953  0.82785  Biso   1.000  O
  O39      1.0000 0.68086  0.16585  0.31705  Biso   1.000  O
  O40      1.0000 0.80797  0.16585  0.31705  Biso   1.000  O
  O41      1.0000 0.80797  0.54953  0.31705  Biso   1.000  O
  O42      1.0000 0.68086  0.67664  0.31705  Biso   1.000  O
  O43      1.0000 0.29717  0.16585  0.70074  Biso   1.000  O
  O44      1.0000 0.29717  0.16585  0.82785  Biso   1.000  O
  O45      1.0000 0.86072  0.11309  0.75350  Biso   1.000  O
  O46      1.0000 0.73362  0.11309  0.88061  Biso   1.000  O
  O47      1.0000 0.24441  0.60229  0.26430  Biso   1.000  O
  O48      1.0000 0.24441  0.72940  0.26430  Biso   1.000  O
  O49      1.0000 0.24441  0.11309  0.88061  Biso   1.000  O
  O50      1.0000 0.24441  0.11309  0.75350  Biso   1.000  O
  O51      1.0000 0.86072  0.60229  0.26430  Biso   1.000  O
  O52      1.0000 0.73362  0.72940  0.26430  Biso   1.000  O
  O53      1.0000 0.73362  0.11309  0.26430  Biso   1.000  O
  O54      1.0000 0.86072  0.11309  0.26430  Biso   1.000  O
  O55      1.0000 0.24441  0.60229  0.88061  Biso   1.000  O
  O56      1.0000 0.24441  0.72940  0.75350  Biso   1.000  O
  O57      1.0000 0.65989  0.25078  0.67896  Biso   1.000  O
  O58      1.0000 0.71754  0.19312  0.73661  Biso   1.000  O
  O59      1.0000 0.38291  0.52775  0.40199  Biso   1.000  O
  O60      1.0000 0.32526  0.58541  0.34433  Biso   1.000  O
  O61      1.0000 0.38291  0.52775  0.67896  Biso   1.000  O
  O62      1.0000 0.32526  0.58541  0.73661  Biso   1.000  O
  O63      1.0000 0.65989  0.25078  0.40199  Biso   1.000  O
  O64      1.0000 0.71754  0.19312  0.34433  Biso   1.000  O
  O65      1.0000 0.65989  0.52775  0.40199  Biso   1.000  O
  O66      1.0000 0.71754  0.58541  0.34433  Biso   1.000  O
  O67      1.0000 0.38291  0.25078  0.67896  Biso   1.000  O
  O68      1.0000 0.32526  0.19312  0.73661  Biso   1.000  O
  O69      1.0000 0.88170  0.02816  0.90239  Biso   1.000  O
  O70      1.0000 0.82404  0.08581  0.84474  Biso   1.000  O
  O71      1.0000 0.15867  0.75118  0.17937  Biso   1.000  O
  O72      1.0000 0.21632  0.69353  0.23702  Biso   1.000  O
  O73      1.0000 0.15867  0.02816  0.90239  Biso   1.000  O
  O74      1.0000 0.21632  0.08581  0.84474  Biso   1.000  O
  O75      1.0000 0.88170  0.75118  0.17937  Biso   1.000  O
  O76      1.0000 0.82404  0.69353  0.23702  Biso   1.000  O
  O77      1.0000 0.88170  0.02816  0.17937  Biso   1.000  O
  O78      1.0000 0.82404  0.08581  0.23702  Biso   1.000  O
  O79      1.0000 0.15867  0.75118  0.90239  Biso   1.000  O
  O80      1.0000 0.21632  0.69353  0.84474  Biso   1.000  O
  O81      1.0000 0.52140  0.38927  0.54047  Biso   1.000  O
  O82      1.0000 0.02018  0.88967  0.04088  Biso   1.000  O
  O83      1.0000 0.57668  0.27331  0.71710  Biso   1.000  O
  O84      1.0000 0.69803  0.27331  0.59576  Biso   1.000  O
  O85      1.0000 0.40544  0.44455  0.42452  Biso   1.000  O
  O86      1.0000 0.40544  0.56589  0.42452  Biso   1.000  O
  O87      1.0000 0.40544  0.56589  0.59576  Biso   1.000  O
  O88      1.0000 0.40544  0.44455  0.71710  Biso   1.000  O
  O89      1.0000 0.57668  0.27331  0.42452  Biso   1.000  O
  O90      1.0000 0.69803  0.27331  0.42452  Biso   1.000  O
  O91      1.0000 0.69803  0.44455  0.42452  Biso   1.000  O
  O92      1.0000 0.57668  0.56589  0.42452  Biso   1.000  O
  O93      1.0000 0.40544  0.27331  0.59576  Biso   1.000  O
  O94      1.0000 0.40544  0.27331  0.71710  Biso   1.000  O
  O95      1.0000 0.96490  0.00563  0.86425  Biso   1.000  O
  O96      1.0000 0.84356  0.00563  0.98559  Biso   1.000  O
  O97      1.0000 0.13614  0.71304  0.15683  Biso   1.000  O
  O98      1.0000 0.13614  0.83439  0.15683  Biso   1.000  O
  O99      1.0000 0.13614  0.00563  0.98559  Biso   1.000  O
  O100     1.0000 0.13614  0.00563  0.86425  Biso   1.000  O
  O101     1.0000 0.96490  0.71304  0.15683  Biso   1.000  O
  O102     1.0000 0.84356  0.83439  0.15683  Biso   1.000  O
  O103     1.0000 0.84356  0.00563  0.15683  Biso   1.000  O
  O104     1.0000 0.96490  0.00563  0.15683  Biso   1.000  O
  O105     1.0000 0.13614  0.71304  0.98559  Biso   1.000  O
