data_image0
_cell_length_a       18.255
_cell_length_b       18.255
_cell_length_c       18.255
_cell_angle_alpha    60
_cell_angle_beta     60
_cell_angle_gamma    60

_symmetry_space_group_name_H-M    "P 1"
_symmetry_int_tables_number       1

loop_
  _symmetry_equiv_pos_as_xyz
  'x, y, z'

loop_
  _atom_site_label
  _atom_site_occupancy
  _atom_site_fract_x
  _atom_site_fract_y
  _atom_site_fract_z
  _atom_site_thermal_displace_type
  _atom_site_B_iso_or_equiv
  _atom_site_type_symbol
  Zn1      1.0000 0.29354  0.29354  0.11938  Biso   1.000  Zn
  Zn2      1.0000 0.29354  0.29354  0.29354  Biso   1.000  Zn
  Zn3      1.0000 0.11938  0.29354  0.29354  Biso   1.000  Zn
  Zn4      1.0000 0.29354  0.11938  0.29354  Biso   1.000  Zn
  Zn5      1.0000 0.70646  0.70646  0.88062  Biso   1.000  Zn
  Zn6      1.0000 0.70646  0.70646  0.70646  Biso   1.000  Zn
  Zn7      1.0000 0.70646  0.88062  0.70646  Biso   1.000  Zn
  Zn8      1.0000 0.88062  0.70646  0.70646  Biso   1.000  Zn
  H1       1.0000 0.45570  0.45570  0.93630  Biso   1.000  H
  H2       1.0000 0.45570  0.45570  0.15230  Biso   1.000  H
  H3       1.0000 0.93630  0.15230  0.45570  Biso   1.000  H
  H4       1.0000 0.15230  0.93630  0.45570  Biso   1.000  H
  H5       1.0000 0.45570  0.93630  0.15230  Biso   1.000  H
  H6       1.0000 0.45570  0.15230  0.93630  Biso   1.000  H
  H7       1.0000 0.93630  0.45570  0.45570  Biso   1.000  H
  H8       1.0000 0.15230  0.45570  0.45570  Biso   1.000  H
  H9       1.0000 0.45570  0.15230  0.45570  Biso   1.000  H
  H10      1.0000 0.45570  0.93630  0.45570  Biso   1.000  H
  H11      1.0000 0.93630  0.45570  0.15230  Biso   1.000  H
  H12      1.0000 0.15230  0.45570  0.93630  Biso   1.000  H
  H13      1.0000 0.54430  0.54430  0.06370  Biso   1.000  H
  H14      1.0000 0.54430  0.54430  0.84770  Biso   1.000  H
  H15      1.0000 0.84770  0.06370  0.54430  Biso   1.000  H
  H16      1.0000 0.06370  0.84770  0.54430  Biso   1.000  H
  H17      1.0000 0.06370  0.54430  0.84770  Biso   1.000  H
  H18      1.0000 0.84770  0.54430  0.06370  Biso   1.000  H
  H19      1.0000 0.54430  0.06370  0.54430  Biso   1.000  H
  H20      1.0000 0.54430  0.84770  0.54430  Biso   1.000  H
  H21      1.0000 0.84770  0.54430  0.54430  Biso   1.000  H
  H22      1.0000 0.06370  0.54430  0.54430  Biso   1.000  H
  H23      1.0000 0.54430  0.06370  0.84770  Biso   1.000  H
  H24      1.0000 0.54430  0.84770  0.06370  Biso   1.000  H
  C1       1.0000 0.47332  0.47332  0.96310  Biso   1.000  C
  C2       1.0000 0.47332  0.47332  0.09026  Biso   1.000  C
  C3       1.0000 0.96310  0.09026  0.47332  Biso   1.000  C
  C4       1.0000 0.09026  0.96310  0.47332  Biso   1.000  C
  C5       1.0000 0.47332  0.96310  0.09026  Biso   1.000  C
  C6       1.0000 0.47332  0.09026  0.96310  Biso   1.000  C
  C7       1.0000 0.96310  0.47332  0.47332  Biso   1.000  C
  C8       1.0000 0.09026  0.47332  0.47332  Biso   1.000  C
  C9       1.0000 0.47332  0.09026  0.47332  Biso   1.000  C
  C10      1.0000 0.47332  0.96310  0.47332  Biso   1.000  C
  C11      1.0000 0.96310  0.47332  0.09026  Biso   1.000  C
  C12      1.0000 0.09026  0.47332  0.96310  Biso   1.000  C
  C13      1.0000 0.52668  0.52668  0.03690  Biso   1.000  C
  C14      1.0000 0.52668  0.52668  0.90974  Biso   1.000  C
  C15      1.0000 0.90974  0.03690  0.52668  Biso   1.000  C
  C16      1.0000 0.03690  0.90974  0.52668  Biso   1.000  C
  C17      1.0000 0.03690  0.52668  0.90974  Biso   1.000  C
  C18      1.0000 0.90974  0.52668  0.03690  Biso   1.000  C
  C19      1.0000 0.52668  0.03690  0.52668  Biso   1.000  C
  C20      1.0000 0.52668  0.90974  0.52668  Biso   1.000  C
  C21      1.0000 0.90974  0.52668  0.52668  Biso   1.000  C
  C22      1.0000 0.03690  0.52668  0.52668  Biso   1.000  C
  C23      1.0000 0.52668  0.03690  0.90974  Biso   1.000  C
  C24      1.0000 0.52668  0.90974  0.03690  Biso   1.000  C
  C25      1.0000 0.38870  0.38870  0.11130  Biso   1.000  C
  C26      1.0000 0.44580  0.44580  0.05420  Biso   1.000  C
  C27      1.0000 0.11130  0.11130  0.38870  Biso   1.000  C
  C28      1.0000 0.05420  0.05420  0.44580  Biso   1.000  C
  C29      1.0000 0.38870  0.11130  0.11130  Biso   1.000  C
  C30      1.0000 0.44580  0.05420  0.05420  Biso   1.000  C
  C31      1.0000 0.11130  0.38870  0.38870  Biso   1.000  C
  C32      1.0000 0.05420  0.44580  0.44580  Biso   1.000  C
  C33      1.0000 0.38870  0.11130  0.38870  Biso   1.000  C
  C34      1.0000 0.44580  0.05420  0.44580  Biso   1.000  C
  C35      1.0000 0.11130  0.38870  0.11130  Biso   1.000  C
  C36      1.0000 0.05420  0.44580  0.05420  Biso   1.000  C
  C37      1.0000 0.61130  0.61130  0.88870  Biso   1.000  C
  C38      1.0000 0.55420  0.55420  0.94580  Biso   1.000  C
  C39      1.0000 0.88870  0.88870  0.61130  Biso   1.000  C
  C40      1.0000 0.94580  0.94580  0.55420  Biso   1.000  C
  C41      1.0000 0.88870  0.61130  0.88870  Biso   1.000  C
  C42      1.0000 0.94580  0.55420  0.94580  Biso   1.000  C
  C43      1.0000 0.61130  0.88870  0.61130  Biso   1.000  C
  C44      1.0000 0.55420  0.94580  0.55420  Biso   1.000  C
  C45      1.0000 0.88870  0.61130  0.61130  Biso   1.000  C
  C46      1.0000 0.94580  0.55420  0.55420  Biso   1.000  C
  C47      1.0000 0.61130  0.88870  0.88870  Biso   1.000  C
  C48      1.0000 0.55420  0.94580  0.94580  Biso   1.000  C
  O1       1.0000 0.25000  0.25000  0.25000  Biso   1.000  O
  O2       1.0000 0.75000  0.75000  0.75000  Biso   1.000  O
  O3       1.0000 0.36613  0.36613  0.07303  Biso   1.000  O
  O4       1.0000 0.36613  0.36613  0.19471  Biso   1.000  O
  O5       1.0000 0.07303  0.19471  0.36613  Biso   1.000  O
  O6       1.0000 0.19471  0.07303  0.36613  Biso   1.000  O
  O7       1.0000 0.36613  0.07303  0.19471  Biso   1.000  O
  O8       1.0000 0.36613  0.19471  0.07303  Biso   1.000  O
  O9       1.0000 0.07303  0.36613  0.36613  Biso   1.000  O
  O10      1.0000 0.19471  0.36613  0.36613  Biso   1.000  O
  O11      1.0000 0.36613  0.19471  0.36613  Biso   1.000  O
  O12      1.0000 0.36613  0.07303  0.36613  Biso   1.000  O
  O13      1.0000 0.07303  0.36613  0.19471  Biso   1.000  O
  O14      1.0000 0.19471  0.36613  0.07303  Biso   1.000  O
  O15      1.0000 0.63387  0.63387  0.92697  Biso   1.000  O
  O16      1.0000 0.63387  0.63387  0.80529  Biso   1.000  O
  O17      1.0000 0.80529  0.92697  0.63387  Biso   1.000  O
  O18      1.0000 0.92697  0.80529  0.63387  Biso   1.000  O
  O19      1.0000 0.92697  0.63387  0.80529  Biso   1.000  O
  O20      1.0000 0.80529  0.63387  0.92697  Biso   1.000  O
  O21      1.0000 0.63387  0.92697  0.63387  Biso   1.000  O
  O22      1.0000 0.63387  0.80529  0.63387  Biso   1.000  O
  O23      1.0000 0.80529  0.63387  0.63387  Biso   1.000  O
  O24      1.0000 0.92697  0.63387  0.63387  Biso   1.000  O
  O25      1.0000 0.63387  0.92697  0.80529  Biso   1.000  O
  O26      1.0000 0.63387  0.80529  0.92697  Biso   1.000  O
  Zn9      1.0000 0.99402  0.97435  0.87218  Biso   1.000  Zn
  Zn10     1.0000 0.57643  0.56457  0.46437  Biso   1.000  Zn
  Zn11     1.0000 0.99354  0.14892  0.87287  Biso   1.000  Zn
  Zn12     1.0000 0.99368  0.97460  0.04690  Biso   1.000  Zn
  Zn13     1.0000 0.16801  0.97503  0.87287  Biso   1.000  Zn
  Zn14     1.0000 0.40244  0.56389  0.46369  Biso   1.000  Zn
  Zn15     1.0000 0.57676  0.56432  0.28965  Biso   1.000  Zn
  Zn16     1.0000 0.57690  0.39000  0.46369  Biso   1.000  Zn
  H25      1.0000 0.82698  0.11176  0.23406  Biso   1.000  H
  H26      1.0000 0.35469  0.80944  0.01061  Biso   1.000  H
  H27      1.0000 0.13044  0.33634  0.70748  Biso   1.000  H
  H28      1.0000 0.43957  0.73004  0.10249  Biso   1.000  H
  H29      1.0000 0.74365  0.20333  0.32594  Biso   1.000  H
  H30      1.0000 0.21600  0.42584  0.62908  Biso   1.000  H
  H31      1.0000 0.74346  0.42716  0.10249  Biso   1.000  H
  H32      1.0000 0.21575  0.72948  0.32594  Biso   1.000  H
  H33      1.0000 0.44001  0.20258  0.62908  Biso   1.000  H
  H34      1.0000 0.13088  0.80888  0.23406  Biso   1.000  H
  H35      1.0000 0.82680  0.33558  0.01061  Biso   1.000  H
  H36      1.0000 0.35444  0.11308  0.70748  Biso   1.000  H
  H37      1.0000 0.83478  0.32958  0.71372  Biso   1.000  H
  H38      1.0000 0.82912  0.11409  0.70657  Biso   1.000  H
  H39      1.0000 0.83521  0.81514  0.22731  Biso   1.000  H
  H40      1.0000 0.82938  0.80853  0.01162  Biso   1.000  H
  H41      1.0000 0.34965  0.81642  0.71372  Biso   1.000  H
  H42      1.0000 0.13493  0.80929  0.70657  Biso   1.000  H
  H43      1.0000 0.22080  0.72250  0.62283  Biso   1.000  H
  H44      1.0000 0.43551  0.72963  0.62998  Biso   1.000  H
  H45      1.0000 0.73524  0.72378  0.10924  Biso   1.000  H
  H46      1.0000 0.74107  0.73039  0.32493  Biso   1.000  H
  H47      1.0000 0.73567  0.20934  0.62283  Biso   1.000  H
  H48      1.0000 0.74132  0.42483  0.62998  Biso   1.000  H
  C49      1.0000 0.81178  0.17384  0.20726  Biso   1.000  C
  C50      1.0000 0.32775  0.79428  0.07267  Biso   1.000  C
  C51      1.0000 0.19250  0.30960  0.69247  Biso   1.000  C
  C52      1.0000 0.37751  0.74497  0.12929  Biso   1.000  C
  C53      1.0000 0.75878  0.23027  0.26388  Biso   1.000  C
  C54      1.0000 0.24301  0.36380  0.64409  Biso   1.000  C
  C55      1.0000 0.75866  0.36508  0.12929  Biso   1.000  C
  C56      1.0000 0.24270  0.74464  0.26388  Biso   1.000  C
  C57      1.0000 0.37794  0.22932  0.64409  Biso   1.000  C
  C58      1.0000 0.19293  0.79395  0.20726  Biso   1.000  C
  C59      1.0000 0.81167  0.30865  0.07267  Biso   1.000  C
  C60      1.0000 0.32743  0.17512  0.69247  Biso   1.000  C
  C61      1.0000 0.89824  0.15981  0.77669  Biso   1.000  C
  C62      1.0000 0.84063  0.21421  0.71886  Biso   1.000  C
  C63      1.0000 0.81558  0.30618  0.69418  Biso   1.000  C
  C64      1.0000 0.81225  0.17604  0.68995  Biso   1.000  C
  C65      1.0000 0.89848  0.87847  0.05756  Biso   1.000  C
  C66      1.0000 0.84096  0.82056  0.11186  Biso   1.000  C
  C67      1.0000 0.81601  0.79567  0.20384  Biso   1.000  C
  C68      1.0000 0.81257  0.79176  0.07358  Biso   1.000  C
  C69      1.0000 0.17981  0.87917  0.77669  Biso   1.000  C
  C70      1.0000 0.23461  0.82154  0.71886  Biso   1.000  C
  C71      1.0000 0.32651  0.79694  0.69418  Biso   1.000  C
  C72      1.0000 0.19684  0.79272  0.68995  Biso   1.000  C
  C73      1.0000 0.39063  0.65974  0.55987  Biso   1.000  C
  C74      1.0000 0.33584  0.71738  0.61769  Biso   1.000  C
  C75      1.0000 0.24393  0.74198  0.64237  Biso   1.000  C
  C76      1.0000 0.37360  0.74620  0.64661  Biso   1.000  C
  C77      1.0000 0.67197  0.66045  0.27899  Biso   1.000  C
  C78      1.0000 0.72949  0.71836  0.22469  Biso   1.000  C
  C79      1.0000 0.75444  0.74325  0.13271  Biso   1.000  C
  C80      1.0000 0.75787  0.74715  0.26298  Biso   1.000  C
  C81      1.0000 0.67220  0.37911  0.55987  Biso   1.000  C
  C82      1.0000 0.72982  0.32471  0.61769  Biso   1.000  C
  C83      1.0000 0.75486  0.23274  0.64237  Biso   1.000  C
  C84      1.0000 0.75819  0.36288  0.64661  Biso   1.000  C
  C85      1.0000 0.89703  0.15841  0.05685  Biso   1.000  C
  C86      1.0000 0.84440  0.21168  0.11030  Biso   1.000  C
  C87      1.0000 0.17749  0.87888  0.05685  Biso   1.000  C
  C88      1.0000 0.23075  0.82660  0.11030  Biso   1.000  C
  C89      1.0000 0.17726  0.15911  0.77709  Biso   1.000  C
  C90      1.0000 0.23043  0.21264  0.72491  Biso   1.000  C
  C91      1.0000 0.39295  0.66004  0.27970  Biso   1.000  C
  C92      1.0000 0.33969  0.71232  0.22625  Biso   1.000  C
  C93      1.0000 0.67342  0.38051  0.27970  Biso   1.000  C
  C94      1.0000 0.72605  0.32724  0.22625  Biso   1.000  C
  C95      1.0000 0.39319  0.37981  0.55946  Biso   1.000  C
  C96      1.0000 0.34001  0.32628  0.61165  Biso   1.000  C
  O27      1.0000 0.92095  0.19707  0.96799  Biso   1.000  O
  O28      1.0000 0.08861  0.90253  0.09533  Biso   1.000  O
  O29      1.0000 0.21602  0.07026  0.80086  Biso   1.000  O
  O30      1.0000 0.35428  0.63607  0.36856  Biso   1.000  O
  O31      1.0000 0.64938  0.46940  0.24122  Biso   1.000  O
  O32      1.0000 0.48208  0.34143  0.53570  Biso   1.000  O
  O33      1.0000 0.64949  0.34185  0.36856  Biso   1.000  O
  O34      1.0000 0.48183  0.63639  0.24122  Biso   1.000  O
  O35      1.0000 0.35442  0.46866  0.53570  Biso   1.000  O
  O36      1.0000 0.21616  0.90284  0.96799  Biso   1.000  O
  O37      1.0000 0.92106  0.06952  0.09533  Biso   1.000  O
  O38      1.0000 0.08836  0.19749  0.80086  Biso   1.000  O
  O39      1.0000 0.03904  0.01998  0.91796  Biso   1.000  O
  O40      1.0000 0.53141  0.51894  0.41859  Biso   1.000  O
  O41      1.0000 0.92157  0.07128  0.79966  Biso   1.000  O
  O42      1.0000 0.92043  0.19811  0.79935  Biso   1.000  O
  O43      1.0000 0.92171  0.90164  0.96901  Biso   1.000  O
  O44      1.0000 0.92068  0.90103  0.09594  Biso   1.000  O
  O45      1.0000 0.09134  0.90207  0.79966  Biso   1.000  O
  O46      1.0000 0.21776  0.90177  0.79935  Biso   1.000  O
  O47      1.0000 0.47910  0.63685  0.53690  Biso   1.000  O
  O48      1.0000 0.35269  0.63715  0.53720  Biso   1.000  O
  O49      1.0000 0.64873  0.63728  0.36755  Biso   1.000  O
  O50      1.0000 0.64977  0.63789  0.24061  Biso   1.000  O
  O51      1.0000 0.64887  0.46764  0.53690  Biso   1.000  O
