data_image0
_cell_length_a       18.3083
_cell_length_b       18.3083
_cell_length_c       18.3083
_cell_angle_alpha    60
_cell_angle_beta     60
_cell_angle_gamma    60

_symmetry_space_group_name_H-M    "P 1"
_symmetry_int_tables_number       1

loop_
  _symmetry_equiv_pos_as_xyz
  'x, y, z'

loop_
  _atom_site_label
  _atom_site_occupancy
  _atom_site_fract_x
  _atom_site_fract_y
  _atom_site_fract_z
  _atom_site_thermal_displace_type
  _atom_site_B_iso_or_equiv
  _atom_site_type_symbol
  C1       1.0000 0.29342  0.29341  0.11976  Biso   1.000  C
  C2       1.0000 0.29342  0.29341  0.29341  Biso   1.000  C
  C3       1.0000 0.11977  0.29341  0.29341  Biso   1.000  C
  C4       1.0000 0.29342  0.11976  0.29341  Biso   1.000  C
  C5       1.0000 0.70658  0.70659  0.88024  Biso   1.000  C
  C6       1.0000 0.70658  0.70659  0.70659  Biso   1.000  C
  C7       1.0000 0.70658  0.88024  0.70659  Biso   1.000  C
  C8       1.0000 0.88023  0.70659  0.70659  Biso   1.000  C
  C9       1.0000 0.45480  0.45480  0.93480  Biso   1.000  C
  C10      1.0000 0.45480  0.45480  0.15560  Biso   1.000  C
  C11      1.0000 0.93480  0.15560  0.45480  Biso   1.000  C
  C12      1.0000 0.15560  0.93480  0.45480  Biso   1.000  C
  C13      1.0000 0.45480  0.93480  0.15560  Biso   1.000  C
  C14      1.0000 0.45480  0.15560  0.93480  Biso   1.000  C
  C15      1.0000 0.93480  0.45480  0.45480  Biso   1.000  C
  C16      1.0000 0.15560  0.45480  0.45480  Biso   1.000  C
  C17      1.0000 0.45480  0.15560  0.45480  Biso   1.000  C
  C18      1.0000 0.45480  0.93480  0.45480  Biso   1.000  C
  C19      1.0000 0.93480  0.45480  0.15560  Biso   1.000  C
  C20      1.0000 0.15560  0.45480  0.93480  Biso   1.000  C
  C21      1.0000 0.54520  0.54520  0.06520  Biso   1.000  C
  C22      1.0000 0.54520  0.54520  0.84440  Biso   1.000  C
  C23      1.0000 0.84440  0.06520  0.54520  Biso   1.000  C
  C24      1.0000 0.06520  0.84440  0.54520  Biso   1.000  C
  C25      1.0000 0.06520  0.54520  0.84440  Biso   1.000  C
  C26      1.0000 0.84440  0.54520  0.06520  Biso   1.000  C
  C27      1.0000 0.54520  0.06520  0.54520  Biso   1.000  C
  C28      1.0000 0.54520  0.84440  0.54520  Biso   1.000  C
  C29      1.0000 0.84440  0.54520  0.54520  Biso   1.000  C
  C30      1.0000 0.06520  0.54520  0.54520  Biso   1.000  C
  C31      1.0000 0.54520  0.06520  0.84440  Biso   1.000  C
  C32      1.0000 0.54520  0.84440  0.06520  Biso   1.000  C
  C33      1.0000 0.47317  0.47317  0.96131  Biso   1.000  C
  C34      1.0000 0.47317  0.47317  0.09235  Biso   1.000  C
  C35      1.0000 0.96131  0.09235  0.47317  Biso   1.000  C
  C36      1.0000 0.09235  0.96131  0.47317  Biso   1.000  C
  C37      1.0000 0.47317  0.96131  0.09235  Biso   1.000  C
  C38      1.0000 0.47317  0.09235  0.96131  Biso   1.000  C
  C39      1.0000 0.96131  0.47317  0.47317  Biso   1.000  C
  C40      1.0000 0.09235  0.47317  0.47317  Biso   1.000  C
  C41      1.0000 0.47317  0.09235  0.47317  Biso   1.000  C
  C42      1.0000 0.47317  0.96131  0.47317  Biso   1.000  C
  C43      1.0000 0.96131  0.47317  0.09235  Biso   1.000  C
  C44      1.0000 0.09235  0.47317  0.96131  Biso   1.000  C
  C45      1.0000 0.52683  0.52683  0.03869  Biso   1.000  C
  C46      1.0000 0.52683  0.52683  0.90765  Biso   1.000  C
  C47      1.0000 0.90765  0.03869  0.52683  Biso   1.000  C
  C48      1.0000 0.03869  0.90765  0.52683  Biso   1.000  C
  C49      1.0000 0.03869  0.52683  0.90765  Biso   1.000  C
  C50      1.0000 0.90765  0.52683  0.03869  Biso   1.000  C
  C51      1.0000 0.52683  0.03869  0.52683  Biso   1.000  C
  C52      1.0000 0.52683  0.90765  0.52683  Biso   1.000  C
  C53      1.0000 0.90765  0.52683  0.52683  Biso   1.000  C
  C54      1.0000 0.03869  0.52683  0.52683  Biso   1.000  C
  C55      1.0000 0.52683  0.03869  0.90765  Biso   1.000  C
  C56      1.0000 0.52683  0.90765  0.03869  Biso   1.000  C
  C57      1.0000 0.38843  0.38843  0.11157  Biso   1.000  C
  C58      1.0000 0.44641  0.44641  0.05359  Biso   1.000  C
  C59      1.0000 0.11157  0.11157  0.38843  Biso   1.000  C
  C60      1.0000 0.05359  0.05359  0.44641  Biso   1.000  C
  C61      1.0000 0.38843  0.11157  0.11157  Biso   1.000  C
  C62      1.0000 0.44641  0.05359  0.05359  Biso   1.000  C
  C63      1.0000 0.11157  0.38843  0.38843  Biso   1.000  C
  C64      1.0000 0.05359  0.44641  0.44641  Biso   1.000  C
  C65      1.0000 0.38843  0.11157  0.38843  Biso   1.000  C
  C66      1.0000 0.44641  0.05359  0.44641  Biso   1.000  C
  C67      1.0000 0.11157  0.38843  0.11157  Biso   1.000  C
  C68      1.0000 0.05359  0.44641  0.05359  Biso   1.000  C
  C69      1.0000 0.61157  0.61157  0.88843  Biso   1.000  C
  C70      1.0000 0.55359  0.55359  0.94641  Biso   1.000  C
  C71      1.0000 0.88843  0.88843  0.61157  Biso   1.000  C
  C72      1.0000 0.94641  0.94641  0.55359  Biso   1.000  C
  C73      1.0000 0.88843  0.61157  0.88843  Biso   1.000  C
  C74      1.0000 0.94641  0.55359  0.94641  Biso   1.000  C
  C75      1.0000 0.61157  0.88843  0.61157  Biso   1.000  C
  C76      1.0000 0.55359  0.94641  0.55359  Biso   1.000  C
  C77      1.0000 0.88843  0.61157  0.61157  Biso   1.000  C
  C78      1.0000 0.94641  0.55359  0.55359  Biso   1.000  C
  C79      1.0000 0.61157  0.88843  0.88843  Biso   1.000  C
  C80      1.0000 0.55359  0.94641  0.94641  Biso   1.000  C
  C81      1.0000 0.25000  0.25000  0.25000  Biso   1.000  C
  C82      1.0000 0.75000  0.75000  0.75000  Biso   1.000  C
  C83      1.0000 0.36629  0.36629  0.07237  Biso   1.000  C
  C84      1.0000 0.36629  0.36629  0.19505  Biso   1.000  C
  C85      1.0000 0.07237  0.19505  0.36629  Biso   1.000  C
  C86      1.0000 0.19505  0.07237  0.36629  Biso   1.000  C
  C87      1.0000 0.36629  0.07237  0.19505  Biso   1.000  C
  C88      1.0000 0.36629  0.19505  0.07237  Biso   1.000  C
  C89      1.0000 0.07237  0.36629  0.36629  Biso   1.000  C
  C90      1.0000 0.19505  0.36629  0.36629  Biso   1.000  C
  C91      1.0000 0.36629  0.19505  0.36629  Biso   1.000  C
  C92      1.0000 0.36629  0.07237  0.36629  Biso   1.000  C
  C93      1.0000 0.07237  0.36629  0.19505  Biso   1.000  C
  C94      1.0000 0.19505  0.36629  0.07237  Biso   1.000  C
  C95      1.0000 0.63371  0.63371  0.92763  Biso   1.000  C
  C96      1.0000 0.63371  0.63371  0.80495  Biso   1.000  C
  C97      1.0000 0.80495  0.92763  0.63371  Biso   1.000  C
  C98      1.0000 0.92763  0.80495  0.63371  Biso   1.000  C
  C99      1.0000 0.92763  0.63371  0.80495  Biso   1.000  C
  C100     1.0000 0.80495  0.63371  0.92763  Biso   1.000  C
  C101     1.0000 0.63371  0.92763  0.63371  Biso   1.000  C
  C102     1.0000 0.63371  0.80495  0.63371  Biso   1.000  C
  C103     1.0000 0.80495  0.63371  0.63371  Biso   1.000  C
  C104     1.0000 0.92763  0.63371  0.63371  Biso   1.000  C
  C105     1.0000 0.63371  0.92763  0.80495  Biso   1.000  C
  C106     1.0000 0.63371  0.80495  0.92763  Biso   1.000  C
  O1       1.0000 0.00000  0.00000  0.00000  Biso   1.000  O
  O2       1.0000 0.56940  0.41917  0.59225  Biso   1.000  O
  O3       1.0000 0.56940  0.59239  0.59225  Biso   1.000  O
  O4       1.0000 0.00000  0.17322  0.00000  Biso   1.000  O
  O5       1.0000 0.99996  0.99992  0.17341  Biso   1.000  O
  O6       1.0000 0.17299  0.00018  0.99987  Biso   1.000  O
  O7       1.0000 0.56944  0.59247  0.41883  Biso   1.000  O
  O8       1.0000 0.39642  0.59221  0.59238  Biso   1.000  O
  O9       1.0000 0.82462  0.84367  0.36741  Biso   1.000  O
  O10      1.0000 0.82367  0.84522  0.13605  Biso   1.000  O
  O11      1.0000 0.82079  0.13610  0.84605  Biso   1.000  O
  O12      1.0000 0.74478  0.45488  0.22484  Biso   1.000  O
  O13      1.0000 0.74573  0.22411  0.45620  Biso   1.000  O
  O14      1.0000 0.74861  0.22212  0.74619  Biso   1.000  O
  O15      1.0000 0.74478  0.74872  0.22484  Biso   1.000  O
  O16      1.0000 0.74573  0.74717  0.45620  Biso   1.000  O
  O17      1.0000 0.74861  0.45629  0.74619  Biso   1.000  O
  O18      1.0000 0.82462  0.13751  0.36741  Biso   1.000  O
  O19      1.0000 0.82367  0.36828  0.13605  Biso   1.000  O
  O20      1.0000 0.82079  0.37027  0.84605  Biso   1.000  O
  O21      1.0000 0.91301  0.91205  0.17787  Biso   1.000  O
  O22      1.0000 0.84914  0.84768  0.23700  Biso   1.000  O
  O23      1.0000 0.80900  0.82232  0.34111  Biso   1.000  O
  O24      1.0000 0.80905  0.82376  0.19913  Biso   1.000  O
  O25      1.0000 0.17390  0.91265  0.91279  Biso   1.000  O
  O26      1.0000 0.80744  0.19908  0.82242  Biso   1.000  O
  O27      1.0000 0.65640  0.42210  0.41437  Biso   1.000  O
  O28      1.0000 0.72026  0.35299  0.35525  Biso   1.000  O
  O29      1.0000 0.76040  0.39160  0.25114  Biso   1.000  O
  O30      1.0000 0.76036  0.25111  0.39312  Biso   1.000  O
  O31      1.0000 0.39550  0.41853  0.67945  Biso   1.000  O
  O32      1.0000 0.76196  0.24812  0.76982  Biso   1.000  O
  O33      1.0000 0.65640  0.68034  0.41437  Biso   1.000  O
  O34      1.0000 0.72026  0.74471  0.35525  Biso   1.000  O
  O35      1.0000 0.76041  0.77007  0.25114  Biso   1.000  O
  O36      1.0000 0.76036  0.76863  0.39312  Biso   1.000  O
  O37      1.0000 0.39550  0.67973  0.67945  Biso   1.000  O
  O38      1.0000 0.76196  0.39331  0.76982  Biso   1.000  O
  O39      1.0000 0.91301  0.17029  0.17787  Biso   1.000  O
  O40      1.0000 0.84914  0.23940  0.23700  Biso   1.000  O
  O41      1.0000 0.80900  0.20079  0.34111  Biso   1.000  O
  O42      1.0000 0.80904  0.34128  0.19913  Biso   1.000  O
  O43      1.0000 0.17390  0.17386  0.91279  Biso   1.000  O
  O44      1.0000 0.80744  0.34427  0.82242  Biso   1.000  O
  O45      1.0000 0.17194  0.91175  0.17777  Biso   1.000  O
  O46      1.0000 0.90963  0.17495  0.91368  Biso   1.000  O
  O47      1.0000 0.84892  0.23961  0.84507  Biso   1.000  O
  O48      1.0000 0.39746  0.68064  0.41447  Biso   1.000  O
  O49      1.0000 0.65977  0.41744  0.67856  Biso   1.000  O
  O50      1.0000 0.72048  0.35278  0.74718  Biso   1.000  O
  O51      1.0000 0.93041  0.92826  0.22157  Biso   1.000  O
  O52      1.0000 0.92842  0.92748  0.09541  Biso   1.000  O
  O53      1.0000 0.22294  0.92808  0.92901  Biso   1.000  O
  O54      1.0000 0.09313  0.92788  0.92891  Biso   1.000  O
  O55      1.0000 0.92921  0.09368  0.92733  Biso   1.000  O
  O56      1.0000 0.63899  0.49942  0.37067  Biso   1.000  O
  O57      1.0000 0.64098  0.37049  0.49683  Biso   1.000  O
  O58      1.0000 0.34646  0.49920  0.66324  Biso   1.000  O
  O59      1.0000 0.47627  0.36909  0.66334  Biso   1.000  O
  O60      1.0000 0.64020  0.36939  0.66492  Biso   1.000  O
  O61      1.0000 0.63899  0.66413  0.37067  Biso   1.000  O
  O62      1.0000 0.64098  0.66491  0.49683  Biso   1.000  O
  O63      1.0000 0.34646  0.66431  0.66324  Biso   1.000  O
  O64      1.0000 0.47627  0.66451  0.66334  Biso   1.000  O
  O65      1.0000 0.64020  0.49871  0.66492  Biso   1.000  O
  O66      1.0000 0.93041  0.09297  0.22157  Biso   1.000  O
  O67      1.0000 0.92843  0.22190  0.09541  Biso   1.000  O
  O68      1.0000 0.22294  0.09319  0.92901  Biso   1.000  O
  O69      1.0000 0.09313  0.22330  0.92891  Biso   1.000  O
  O70      1.0000 0.92921  0.22300  0.92733  Biso   1.000  O
  O71      1.0000 0.04182  0.04464  0.04212  Biso   1.000  O
  O72      1.0000 0.09344  0.92836  0.22306  Biso   1.000  O
  O73      1.0000 0.22266  0.92846  0.09363  Biso   1.000  O
  O74      1.0000 0.52758  0.54775  0.55013  Biso   1.000  O
  O75      1.0000 0.47596  0.66403  0.36919  Biso   1.000  O
