data_image0
_cell_length_a       18.2205
_cell_length_b       18.2205
_cell_length_c       18.2205
_cell_angle_alpha    60
_cell_angle_beta     60
_cell_angle_gamma    60

_symmetry_space_group_name_H-M    "P 1"
_symmetry_int_tables_number       1

loop_
  _symmetry_equiv_pos_as_xyz
  'x, y, z'

loop_
  _atom_site_label
  _atom_site_occupancy
  _atom_site_fract_x
  _atom_site_fract_y
  _atom_site_fract_z
  _atom_site_thermal_displace_type
  _atom_site_B_iso_or_equiv
  _atom_site_type_symbol
  C1       1.0000 0.29361  0.29361  0.11917  Biso   1.000  C
  C2       1.0000 0.29361  0.29361  0.29361  Biso   1.000  C
  C3       1.0000 0.11917  0.29361  0.29361  Biso   1.000  C
  C4       1.0000 0.29361  0.11917  0.29361  Biso   1.000  C
  C5       1.0000 0.70639  0.70639  0.88083  Biso   1.000  C
  C6       1.0000 0.70639  0.70639  0.70639  Biso   1.000  C
  C7       1.0000 0.70639  0.88083  0.70639  Biso   1.000  C
  C8       1.0000 0.88083  0.70639  0.70639  Biso   1.000  C
  C9       1.0000 0.45580  0.45580  0.93700  Biso   1.000  C
  C10      1.0000 0.45580  0.45580  0.15140  Biso   1.000  C
  C11      1.0000 0.93700  0.15140  0.45580  Biso   1.000  C
  C12      1.0000 0.15140  0.93700  0.45580  Biso   1.000  C
  C13      1.0000 0.45580  0.93700  0.15140  Biso   1.000  C
  C14      1.0000 0.45580  0.15140  0.93700  Biso   1.000  C
  C15      1.0000 0.93700  0.45580  0.45580  Biso   1.000  C
  C16      1.0000 0.15140  0.45580  0.45580  Biso   1.000  C
  C17      1.0000 0.45580  0.15140  0.45580  Biso   1.000  C
  C18      1.0000 0.45580  0.93700  0.45580  Biso   1.000  C
  C19      1.0000 0.93700  0.45580  0.15140  Biso   1.000  C
  C20      1.0000 0.15140  0.45580  0.93700  Biso   1.000  C
  C21      1.0000 0.54420  0.54420  0.06300  Biso   1.000  C
  C22      1.0000 0.54420  0.54420  0.84860  Biso   1.000  C
  C23      1.0000 0.84860  0.06300  0.54420  Biso   1.000  C
  C24      1.0000 0.06300  0.84860  0.54420  Biso   1.000  C
  C25      1.0000 0.06300  0.54420  0.84860  Biso   1.000  C
  C26      1.0000 0.84860  0.54420  0.06300  Biso   1.000  C
  C27      1.0000 0.54420  0.06300  0.54420  Biso   1.000  C
  C28      1.0000 0.54420  0.84860  0.54420  Biso   1.000  C
  C29      1.0000 0.84860  0.54420  0.54420  Biso   1.000  C
  C30      1.0000 0.06300  0.54420  0.54420  Biso   1.000  C
  C31      1.0000 0.54420  0.06300  0.84860  Biso   1.000  C
  C32      1.0000 0.54420  0.84860  0.06300  Biso   1.000  C
  C33      1.0000 0.47350  0.47350  0.96390  Biso   1.000  C
  C34      1.0000 0.47350  0.47350  0.08910  Biso   1.000  C
  C35      1.0000 0.96390  0.08910  0.47350  Biso   1.000  C
  C36      1.0000 0.08910  0.96390  0.47350  Biso   1.000  C
  C37      1.0000 0.47350  0.96390  0.08910  Biso   1.000  C
  C38      1.0000 0.47350  0.08910  0.96390  Biso   1.000  C
  C39      1.0000 0.96390  0.47350  0.47350  Biso   1.000  C
  C40      1.0000 0.08910  0.47350  0.47350  Biso   1.000  C
  C41      1.0000 0.47350  0.08910  0.47350  Biso   1.000  C
  C42      1.0000 0.47350  0.96390  0.47350  Biso   1.000  C
  C43      1.0000 0.96390  0.47350  0.08910  Biso   1.000  C
  C44      1.0000 0.08910  0.47350  0.96390  Biso   1.000  C
  C45      1.0000 0.52650  0.52650  0.03610  Biso   1.000  C
  C46      1.0000 0.52650  0.52650  0.91090  Biso   1.000  C
  C47      1.0000 0.91090  0.03610  0.52650  Biso   1.000  C
  C48      1.0000 0.03610  0.91090  0.52650  Biso   1.000  C
  C49      1.0000 0.03610  0.52650  0.91090  Biso   1.000  C
  C50      1.0000 0.91090  0.52650  0.03610  Biso   1.000  C
  C51      1.0000 0.52650  0.03610  0.52650  Biso   1.000  C
  C52      1.0000 0.52650  0.91090  0.52650  Biso   1.000  C
  C53      1.0000 0.91090  0.52650  0.52650  Biso   1.000  C
  C54      1.0000 0.03610  0.52650  0.52650  Biso   1.000  C
  C55      1.0000 0.52650  0.03610  0.91090  Biso   1.000  C
  C56      1.0000 0.52650  0.91090  0.03610  Biso   1.000  C
  C57      1.0000 0.38850  0.38850  0.11150  Biso   1.000  C
  C58      1.0000 0.44660  0.44660  0.05340  Biso   1.000  C
  C59      1.0000 0.11150  0.11150  0.38850  Biso   1.000  C
  C60      1.0000 0.05340  0.05340  0.44660  Biso   1.000  C
  C61      1.0000 0.38850  0.11150  0.11150  Biso   1.000  C
  C62      1.0000 0.44660  0.05340  0.05340  Biso   1.000  C
  C63      1.0000 0.11150  0.38850  0.38850  Biso   1.000  C
  C64      1.0000 0.05340  0.44660  0.44660  Biso   1.000  C
  C65      1.0000 0.38850  0.11150  0.38850  Biso   1.000  C
  C66      1.0000 0.44660  0.05340  0.44660  Biso   1.000  C
  C67      1.0000 0.11150  0.38850  0.11150  Biso   1.000  C
  C68      1.0000 0.05340  0.44660  0.05340  Biso   1.000  C
  C69      1.0000 0.61150  0.61150  0.88850  Biso   1.000  C
  C70      1.0000 0.55340  0.55340  0.94660  Biso   1.000  C
  C71      1.0000 0.88850  0.88850  0.61150  Biso   1.000  C
  C72      1.0000 0.94660  0.94660  0.55340  Biso   1.000  C
  C73      1.0000 0.88850  0.61150  0.88850  Biso   1.000  C
  C74      1.0000 0.94660  0.55340  0.94660  Biso   1.000  C
  C75      1.0000 0.61150  0.88850  0.61150  Biso   1.000  C
  C76      1.0000 0.55340  0.94660  0.55340  Biso   1.000  C
  C77      1.0000 0.88850  0.61150  0.61150  Biso   1.000  C
  C78      1.0000 0.94660  0.55340  0.55340  Biso   1.000  C
  C79      1.0000 0.61150  0.88850  0.88850  Biso   1.000  C
  C80      1.0000 0.55340  0.94660  0.94660  Biso   1.000  C
  C81      1.0000 0.25000  0.25000  0.25000  Biso   1.000  C
  C82      1.0000 0.75000  0.75000  0.75000  Biso   1.000  C
  C83      1.0000 0.36609  0.36609  0.07351  Biso   1.000  C
  C84      1.0000 0.36609  0.36609  0.19431  Biso   1.000  C
  C85      1.0000 0.07351  0.19431  0.36609  Biso   1.000  C
  C86      1.0000 0.19431  0.07351  0.36609  Biso   1.000  C
  C87      1.0000 0.36609  0.07351  0.19431  Biso   1.000  C
  C88      1.0000 0.36609  0.19431  0.07351  Biso   1.000  C
  C89      1.0000 0.07351  0.36609  0.36609  Biso   1.000  C
  C90      1.0000 0.19431  0.36609  0.36609  Biso   1.000  C
  C91      1.0000 0.36609  0.19431  0.36609  Biso   1.000  C
  C92      1.0000 0.36609  0.07351  0.36609  Biso   1.000  C
  C93      1.0000 0.07351  0.36609  0.19431  Biso   1.000  C
  C94      1.0000 0.19431  0.36609  0.07351  Biso   1.000  C
  C95      1.0000 0.63391  0.63391  0.92649  Biso   1.000  C
  C96      1.0000 0.63391  0.63391  0.80569  Biso   1.000  C
  C97      1.0000 0.80569  0.92649  0.63391  Biso   1.000  C
  C98      1.0000 0.92649  0.80569  0.63391  Biso   1.000  C
  C99      1.0000 0.92649  0.63391  0.80569  Biso   1.000  C
  C100     1.0000 0.80569  0.63391  0.92649  Biso   1.000  C
  C101     1.0000 0.63391  0.92649  0.63391  Biso   1.000  C
  C102     1.0000 0.63391  0.80569  0.63391  Biso   1.000  C
  C103     1.0000 0.80569  0.63391  0.63391  Biso   1.000  C
  C104     1.0000 0.92649  0.63391  0.63391  Biso   1.000  C
  C105     1.0000 0.63391  0.92649  0.80569  Biso   1.000  C
  C106     1.0000 0.63391  0.80569  0.92649  Biso   1.000  C
  O1       1.0000 0.68733  0.35015  0.47053  Biso   1.000  O
  O2       1.0000 0.09889  0.76170  0.05895  Biso   1.000  O
  O3       1.0000 0.92423  0.93636  0.05895  Biso   1.000  O
  O4       1.0000 0.51267  0.52481  0.47053  Biso   1.000  O
  O5       1.0000 0.51247  0.34995  0.64533  Biso   1.000  O
  O6       1.0000 0.51260  0.35008  0.47032  Biso   1.000  O
  O7       1.0000 0.09909  0.93656  0.88415  Biso   1.000  O
  O8       1.0000 0.09896  0.93643  0.05916  Biso   1.000  O
  O9       1.0000 0.34967  0.70631  0.61217  Biso   1.000  O
  O10      1.0000 0.34654  0.49155  0.82645  Biso   1.000  O
  O11      1.0000 0.35329  0.70432  0.30913  Biso   1.000  O
  O12      1.0000 0.35278  0.49038  0.30382  Biso   1.000  O
  O13      1.0000 0.86795  0.49098  0.31093  Biso   1.000  O
  O14      1.0000 0.74272  0.09937  0.91731  Biso   1.000  O
  O15      1.0000 0.95748  0.10249  0.70303  Biso   1.000  O
  O16      1.0000 0.74471  0.09575  0.22035  Biso   1.000  O
  O17      1.0000 0.95865  0.09625  0.22566  Biso   1.000  O
  O18      1.0000 0.95805  0.58109  0.21855  Biso   1.000  O
  O19      1.0000 0.26189  0.58020  0.91731  Biso   1.000  O
  O20      1.0000 0.26501  0.79496  0.70303  Biso   1.000  O
  O21      1.0000 0.25826  0.58219  0.22035  Biso   1.000  O
  O22      1.0000 0.25877  0.79613  0.22566  Biso   1.000  O
  O23      1.0000 0.74361  0.79553  0.21855  Biso   1.000  O
  O24      1.0000 0.86883  0.18714  0.61217  Biso   1.000  O
  O25      1.0000 0.65407  0.18402  0.82645  Biso   1.000  O
  O26      1.0000 0.86685  0.19076  0.30913  Biso   1.000  O
  O27      1.0000 0.65290  0.19026  0.30382  Biso   1.000  O
  O28      1.0000 0.65351  0.70542  0.31093  Biso   1.000  O
  O29      1.0000 0.35096  0.18844  0.61147  Biso   1.000  O
  O30      1.0000 0.34825  0.18573  0.83036  Biso   1.000  O
  O31      1.0000 0.26059  0.09807  0.91801  Biso   1.000  O
  O32      1.0000 0.26331  0.10079  0.69912  Biso   1.000  O
  O33      1.0000 0.41777  0.53454  0.65094  Biso   1.000  O
  O34      1.0000 0.35887  0.59163  0.71144  Biso   1.000  O
  O35      1.0000 0.33273  0.67976  0.67458  Biso   1.000  O
  O36      1.0000 0.33091  0.55386  0.80080  Biso   1.000  O
  O37      1.0000 0.41819  0.53335  0.37384  Biso   1.000  O
  O38      1.0000 0.36220  0.58915  0.31684  Biso   1.000  O
  O39      1.0000 0.33436  0.67858  0.29160  Biso   1.000  O
  O40      1.0000 0.33395  0.55249  0.28819  Biso   1.000  O
  O41      1.0000 0.84160  0.55319  0.29140  Biso   1.000  O
  O42      1.0000 0.91450  0.03126  0.87854  Biso   1.000  O
  O43      1.0000 0.85740  0.09016  0.81803  Biso   1.000  O
  O44      1.0000 0.76927  0.11630  0.85490  Biso   1.000  O
  O45      1.0000 0.89517  0.11811  0.72868  Biso   1.000  O
  O46      1.0000 0.91568  0.03084  0.15564  Biso   1.000  O
  O47      1.0000 0.85988  0.08683  0.21264  Biso   1.000  O
  O48      1.0000 0.77045  0.11468  0.23788  Biso   1.000  O
  O49      1.0000 0.89655  0.11508  0.24129  Biso   1.000  O
  O50      1.0000 0.89584  0.60743  0.23808  Biso   1.000  O
  O51      1.0000 0.19378  0.75197  0.87854  Biso   1.000  O
  O52      1.0000 0.25269  0.69488  0.81803  Biso   1.000  O
  O53      1.0000 0.27882  0.60675  0.85490  Biso   1.000  O
  O54      1.0000 0.28064  0.73265  0.72868  Biso   1.000  O
  O55      1.0000 0.19337  0.75316  0.15564  Biso   1.000  O
  O56      1.0000 0.24936  0.69736  0.21264  Biso   1.000  O
  O57      1.0000 0.27720  0.60793  0.23788  Biso   1.000  O
  O58      1.0000 0.27761  0.73402  0.24129  Biso   1.000  O
  O59      1.0000 0.76995  0.73332  0.23808  Biso   1.000  O
  O60      1.0000 0.69706  0.25525  0.65094  Biso   1.000  O
  O61      1.0000 0.75415  0.19635  0.71144  Biso   1.000  O
  O62      1.0000 0.84228  0.17021  0.67458  Biso   1.000  O
  O63      1.0000 0.71638  0.16840  0.80080  Biso   1.000  O
  O64      1.0000 0.69587  0.25567  0.37384  Biso   1.000  O
  O65      1.0000 0.75167  0.19968  0.31684  Biso   1.000  O
  O66      1.0000 0.84110  0.17183  0.29160  Biso   1.000  O
  O67      1.0000 0.71501  0.17143  0.28819  Biso   1.000  O
  O68      1.0000 0.71571  0.67908  0.29140  Biso   1.000  O
  O69      1.0000 0.41607  0.25355  0.65755  Biso   1.000  O
  O70      1.0000 0.35987  0.19735  0.71064  Biso   1.000  O
  O71      1.0000 0.33323  0.17071  0.67358  Biso   1.000  O
  O72      1.0000 0.33082  0.16830  0.80281  Biso   1.000  O
  O73      1.0000 0.69296  0.53044  0.37905  Biso   1.000  O
  O74      1.0000 0.75327  0.59075  0.31694  Biso   1.000  O
  O75      1.0000 0.19548  0.03296  0.87193  Biso   1.000  O
  O76      1.0000 0.25168  0.08916  0.81884  Biso   1.000  O
  O77      1.0000 0.27832  0.11580  0.85590  Biso   1.000  O
  O78      1.0000 0.28074  0.11821  0.72667  Biso   1.000  O
  O79      1.0000 0.91859  0.75607  0.15043  Biso   1.000  O
  O80      1.0000 0.85829  0.69576  0.21254  Biso   1.000  O
  O81      1.0000 0.43791  0.44869  0.69451  Biso   1.000  O
  O82      1.0000 0.44032  0.57511  0.56809  Biso   1.000  O
  O83      1.0000 0.43762  0.44760  0.39919  Biso   1.000  O
  O84      1.0000 0.43982  0.57362  0.39638  Biso   1.000  O
  O85      1.0000 0.73543  0.44730  0.39869  Biso   1.000  O
  O86      1.0000 0.00035  0.01112  0.83496  Biso   1.000  O
  O87      1.0000 0.87392  0.00871  0.96139  Biso   1.000  O
  O88      1.0000 0.00143  0.01141  0.13029  Biso   1.000  O
  O89      1.0000 0.87542  0.00920  0.13310  Biso   1.000  O
  O90      1.0000 0.00174  0.71360  0.13079  Biso   1.000  O
  O91      1.0000 0.17365  0.83782  0.83496  Biso   1.000  O
  O92      1.0000 0.17124  0.71140  0.96139  Biso   1.000  O
  O93      1.0000 0.17393  0.83891  0.13029  Biso   1.000  O
  O94      1.0000 0.17173  0.71289  0.13310  Biso   1.000  O
  O95      1.0000 0.87612  0.83921  0.13079  Biso   1.000  O
  O96      1.0000 0.61121  0.27539  0.69451  Biso   1.000  O
  O97      1.0000 0.73763  0.27780  0.56809  Biso   1.000  O
  O98      1.0000 0.61012  0.27510  0.39919  Biso   1.000  O
  O99      1.0000 0.73614  0.27731  0.39638  Biso   1.000  O
  O100     1.0000 0.60982  0.57292  0.39869  Biso   1.000  O
  O101     1.0000 0.55612  0.39360  0.51449  Biso   1.000  O
  O102     1.0000 0.43931  0.27679  0.69351  Biso   1.000  O
  O103     1.0000 0.43771  0.27519  0.57280  Biso   1.000  O
  O104     1.0000 0.05543  0.89291  0.01499  Biso   1.000  O
  O105     1.0000 0.17224  0.00972  0.83597  Biso   1.000  O
