data_image0
_cell_length_a       18.255
_cell_length_b       18.255
_cell_length_c       18.255
_cell_angle_alpha    60
_cell_angle_beta     60
_cell_angle_gamma    60

_symmetry_space_group_name_H-M    "P 1"
_symmetry_int_tables_number       1

loop_
  _symmetry_equiv_pos_as_xyz
  'x, y, z'

loop_
  _atom_site_label
  _atom_site_occupancy
  _atom_site_fract_x
  _atom_site_fract_y
  _atom_site_fract_z
  _atom_site_thermal_displace_type
  _atom_site_B_iso_or_equiv
  _atom_site_type_symbol
  C1       1.0000 0.29354  0.29354  0.11938  Biso   1.000  C
  C2       1.0000 0.29354  0.29354  0.29354  Biso   1.000  C
  C3       1.0000 0.11938  0.29354  0.29354  Biso   1.000  C
  C4       1.0000 0.29354  0.11938  0.29354  Biso   1.000  C
  C5       1.0000 0.70646  0.70646  0.88062  Biso   1.000  C
  C6       1.0000 0.70646  0.70646  0.70646  Biso   1.000  C
  C7       1.0000 0.70646  0.88062  0.70646  Biso   1.000  C
  C8       1.0000 0.88062  0.70646  0.70646  Biso   1.000  C
  C9       1.0000 0.45570  0.45570  0.93630  Biso   1.000  C
  C10      1.0000 0.45570  0.45570  0.15230  Biso   1.000  C
  C11      1.0000 0.93630  0.15230  0.45570  Biso   1.000  C
  C12      1.0000 0.15230  0.93630  0.45570  Biso   1.000  C
  C13      1.0000 0.45570  0.93630  0.15230  Biso   1.000  C
  C14      1.0000 0.45570  0.15230  0.93630  Biso   1.000  C
  C15      1.0000 0.93630  0.45570  0.45570  Biso   1.000  C
  C16      1.0000 0.15230  0.45570  0.45570  Biso   1.000  C
  C17      1.0000 0.45570  0.15230  0.45570  Biso   1.000  C
  C18      1.0000 0.45570  0.93630  0.45570  Biso   1.000  C
  C19      1.0000 0.93630  0.45570  0.15230  Biso   1.000  C
  C20      1.0000 0.15230  0.45570  0.93630  Biso   1.000  C
  C21      1.0000 0.54430  0.54430  0.06370  Biso   1.000  C
  C22      1.0000 0.54430  0.54430  0.84770  Biso   1.000  C
  C23      1.0000 0.84770  0.06370  0.54430  Biso   1.000  C
  C24      1.0000 0.06370  0.84770  0.54430  Biso   1.000  C
  C25      1.0000 0.06370  0.54430  0.84770  Biso   1.000  C
  C26      1.0000 0.84770  0.54430  0.06370  Biso   1.000  C
  C27      1.0000 0.54430  0.06370  0.54430  Biso   1.000  C
  C28      1.0000 0.54430  0.84770  0.54430  Biso   1.000  C
  C29      1.0000 0.84770  0.54430  0.54430  Biso   1.000  C
  C30      1.0000 0.06370  0.54430  0.54430  Biso   1.000  C
  C31      1.0000 0.54430  0.06370  0.84770  Biso   1.000  C
  C32      1.0000 0.54430  0.84770  0.06370  Biso   1.000  C
  C33      1.0000 0.47332  0.47332  0.96310  Biso   1.000  C
  C34      1.0000 0.47332  0.47332  0.09026  Biso   1.000  C
  C35      1.0000 0.96310  0.09026  0.47332  Biso   1.000  C
  C36      1.0000 0.09026  0.96310  0.47332  Biso   1.000  C
  C37      1.0000 0.47332  0.96310  0.09026  Biso   1.000  C
  C38      1.0000 0.47332  0.09026  0.96310  Biso   1.000  C
  C39      1.0000 0.96310  0.47332  0.47332  Biso   1.000  C
  C40      1.0000 0.09026  0.47332  0.47332  Biso   1.000  C
  C41      1.0000 0.47332  0.09026  0.47332  Biso   1.000  C
  C42      1.0000 0.47332  0.96310  0.47332  Biso   1.000  C
  C43      1.0000 0.96310  0.47332  0.09026  Biso   1.000  C
  C44      1.0000 0.09026  0.47332  0.96310  Biso   1.000  C
  C45      1.0000 0.52668  0.52668  0.03690  Biso   1.000  C
  C46      1.0000 0.52668  0.52668  0.90974  Biso   1.000  C
  C47      1.0000 0.90974  0.03690  0.52668  Biso   1.000  C
  C48      1.0000 0.03690  0.90974  0.52668  Biso   1.000  C
  C49      1.0000 0.03690  0.52668  0.90974  Biso   1.000  C
  C50      1.0000 0.90974  0.52668  0.03690  Biso   1.000  C
  C51      1.0000 0.52668  0.03690  0.52668  Biso   1.000  C
  C52      1.0000 0.52668  0.90974  0.52668  Biso   1.000  C
  C53      1.0000 0.90974  0.52668  0.52668  Biso   1.000  C
  C54      1.0000 0.03690  0.52668  0.52668  Biso   1.000  C
  C55      1.0000 0.52668  0.03690  0.90974  Biso   1.000  C
  C56      1.0000 0.52668  0.90974  0.03690  Biso   1.000  C
  C57      1.0000 0.38870  0.38870  0.11130  Biso   1.000  C
  C58      1.0000 0.44580  0.44580  0.05420  Biso   1.000  C
  C59      1.0000 0.11130  0.11130  0.38870  Biso   1.000  C
  C60      1.0000 0.05420  0.05420  0.44580  Biso   1.000  C
  C61      1.0000 0.38870  0.11130  0.11130  Biso   1.000  C
  C62      1.0000 0.44580  0.05420  0.05420  Biso   1.000  C
  C63      1.0000 0.11130  0.38870  0.38870  Biso   1.000  C
  C64      1.0000 0.05420  0.44580  0.44580  Biso   1.000  C
  C65      1.0000 0.38870  0.11130  0.38870  Biso   1.000  C
  C66      1.0000 0.44580  0.05420  0.44580  Biso   1.000  C
  C67      1.0000 0.11130  0.38870  0.11130  Biso   1.000  C
  C68      1.0000 0.05420  0.44580  0.05420  Biso   1.000  C
  C69      1.0000 0.61130  0.61130  0.88870  Biso   1.000  C
  C70      1.0000 0.55420  0.55420  0.94580  Biso   1.000  C
  C71      1.0000 0.88870  0.88870  0.61130  Biso   1.000  C
  C72      1.0000 0.94580  0.94580  0.55420  Biso   1.000  C
  C73      1.0000 0.88870  0.61130  0.88870  Biso   1.000  C
  C74      1.0000 0.94580  0.55420  0.94580  Biso   1.000  C
  C75      1.0000 0.61130  0.88870  0.61130  Biso   1.000  C
  C76      1.0000 0.55420  0.94580  0.55420  Biso   1.000  C
  C77      1.0000 0.88870  0.61130  0.61130  Biso   1.000  C
  C78      1.0000 0.94580  0.55420  0.55420  Biso   1.000  C
  C79      1.0000 0.61130  0.88870  0.88870  Biso   1.000  C
  C80      1.0000 0.55420  0.94580  0.94580  Biso   1.000  C
  C81      1.0000 0.25000  0.25000  0.25000  Biso   1.000  C
  C82      1.0000 0.75000  0.75000  0.75000  Biso   1.000  C
  C83      1.0000 0.36613  0.36613  0.07303  Biso   1.000  C
  C84      1.0000 0.36613  0.36613  0.19471  Biso   1.000  C
  C85      1.0000 0.07303  0.19471  0.36613  Biso   1.000  C
  C86      1.0000 0.19471  0.07303  0.36613  Biso   1.000  C
  C87      1.0000 0.36613  0.07303  0.19471  Biso   1.000  C
  C88      1.0000 0.36613  0.19471  0.07303  Biso   1.000  C
  C89      1.0000 0.07303  0.36613  0.36613  Biso   1.000  C
  C90      1.0000 0.19471  0.36613  0.36613  Biso   1.000  C
  C91      1.0000 0.36613  0.19471  0.36613  Biso   1.000  C
  C92      1.0000 0.36613  0.07303  0.36613  Biso   1.000  C
  C93      1.0000 0.07303  0.36613  0.19471  Biso   1.000  C
  C94      1.0000 0.19471  0.36613  0.07303  Biso   1.000  C
  C95      1.0000 0.63387  0.63387  0.92697  Biso   1.000  C
  C96      1.0000 0.63387  0.63387  0.80529  Biso   1.000  C
  C97      1.0000 0.80529  0.92697  0.63387  Biso   1.000  C
  C98      1.0000 0.92697  0.80529  0.63387  Biso   1.000  C
  C99      1.0000 0.92697  0.63387  0.80529  Biso   1.000  C
  C100     1.0000 0.80529  0.63387  0.92697  Biso   1.000  C
  C101     1.0000 0.63387  0.92697  0.63387  Biso   1.000  C
  C102     1.0000 0.63387  0.80529  0.63387  Biso   1.000  C
  C103     1.0000 0.80529  0.63387  0.63387  Biso   1.000  C
  C104     1.0000 0.92697  0.63387  0.63387  Biso   1.000  C
  C105     1.0000 0.63387  0.92697  0.80529  Biso   1.000  C
  C106     1.0000 0.63387  0.80529  0.92697  Biso   1.000  C
  O1       1.0000 0.16434  0.00000  0.00000  Biso   1.000  O
  O2       1.0000 0.57661  0.58759  0.41254  Biso   1.000  O
  O3       1.0000 0.57661  0.41274  0.41254  Biso   1.000  O
  O4       1.0000 0.16434  0.82515  0.00000  Biso   1.000  O
  O5       1.0000 0.16388  0.00034  0.82493  Biso   1.000  O
  O6       1.0000 0.98909  0.00015  0.00010  Biso   1.000  O
  O7       1.0000 0.57707  0.41240  0.58762  Biso   1.000  O
  O8       1.0000 0.75186  0.41259  0.41244  Biso   1.000  O
  O9       1.0000 0.32758  0.64539  0.85646  Biso   1.000  O
  O10      1.0000 0.32109  0.86033  0.64478  Biso   1.000  O
  O11      1.0000 0.02374  0.64648  0.16012  Biso   1.000  O
  O12      1.0000 0.80611  0.85780  0.16242  Biso   1.000  O
  O13      1.0000 0.32839  0.85980  0.15762  Biso   1.000  O
  O14      1.0000 0.41338  0.25267  0.55609  Biso   1.000  O
  O15      1.0000 0.41985  0.24946  0.76777  Biso   1.000  O
  O16      1.0000 0.71721  0.25359  0.25242  Biso   1.000  O
  O17      1.0000 0.93484  0.24959  0.25012  Biso   1.000  O
  O18      1.0000 0.41256  0.76907  0.25492  Biso   1.000  O
  O19      1.0000 0.41337  0.76735  0.55609  Biso   1.000  O
  O20      1.0000 0.41986  0.55241  0.76777  Biso   1.000  O
  O21      1.0000 0.71721  0.76627  0.25242  Biso   1.000  O
  O22      1.0000 0.93484  0.55494  0.25012  Biso   1.000  O
  O23      1.0000 0.41256  0.55294  0.25492  Biso   1.000  O
  O24      1.0000 0.32757  0.16007  0.85646  Biso   1.000  O
  O25      1.0000 0.32110  0.16328  0.64478  Biso   1.000  O
  O26      1.0000 0.02374  0.15916  0.16012  Biso   1.000  O
  O27      1.0000 0.80611  0.16315  0.16242  Biso   1.000  O
  O28      1.0000 0.32839  0.64368  0.15762  Biso   1.000  O
  O29      1.0000 0.80699  0.16197  0.85856  Biso   1.000  O
  O30      1.0000 0.02085  0.16308  0.64248  Biso   1.000  O
  O31      1.0000 0.93396  0.25077  0.55399  Biso   1.000  O
  O32      1.0000 0.72010  0.24966  0.77007  Biso   1.000  O
  O33      1.0000 0.25861  0.81663  0.82006  Biso   1.000  O
  O34      1.0000 0.31820  0.75854  0.75887  Biso   1.000  O
  O35      1.0000 0.34537  0.67109  0.79426  Biso   1.000  O
  O36      1.0000 0.34049  0.79824  0.67078  Biso   1.000  O
  O37      1.0000 0.97957  0.81981  0.09713  Biso   1.000  O
  O38      1.0000 0.92549  0.76132  0.15242  Biso   1.000  O
  O39      1.0000 0.96155  0.67267  0.17812  Biso   1.000  O
  O40      1.0000 0.83380  0.79581  0.17992  Biso   1.000  O
  O41      1.0000 0.34429  0.79771  0.17772  Biso   1.000  O
  O42      1.0000 0.48234  0.31856  0.59248  Biso   1.000  O
  O43      1.0000 0.42275  0.25887  0.65368  Biso   1.000  O
  O44      1.0000 0.39558  0.23397  0.61828  Biso   1.000  O
  O45      1.0000 0.40046  0.23277  0.74177  Biso   1.000  O
  O46      1.0000 0.76137  0.31977  0.31542  Biso   1.000  O
  O47      1.0000 0.81546  0.26249  0.26012  Biso   1.000  O
  O48      1.0000 0.77940  0.23559  0.23442  Biso   1.000  O
  O49      1.0000 0.90715  0.23279  0.23262  Biso   1.000  O
  O50      1.0000 0.39666  0.74297  0.23482  Biso   1.000  O
  O51      1.0000 0.48234  0.59611  0.59248  Biso   1.000  O
  O52      1.0000 0.42275  0.65420  0.65368  Biso   1.000  O
  O53      1.0000 0.39558  0.74165  0.61828  Biso   1.000  O
  O54      1.0000 0.40046  0.61450  0.74177  Biso   1.000  O
  O55      1.0000 0.76138  0.59293  0.31542  Biso   1.000  O
  O56      1.0000 0.81546  0.65142  0.26012  Biso   1.000  O
  O57      1.0000 0.77940  0.74007  0.23442  Biso   1.000  O
  O58      1.0000 0.90715  0.61693  0.23262  Biso   1.000  O
  O59      1.0000 0.39666  0.61503  0.23482  Biso   1.000  O
  O60      1.0000 0.25861  0.09418  0.82006  Biso   1.000  O
  O61      1.0000 0.31820  0.15388  0.75887  Biso   1.000  O
  O62      1.0000 0.34537  0.17877  0.79426  Biso   1.000  O
  O63      1.0000 0.34049  0.17998  0.67078  Biso   1.000  O
  O64      1.0000 0.97958  0.09297  0.09713  Biso   1.000  O
  O65      1.0000 0.92549  0.15026  0.15242  Biso   1.000  O
  O66      1.0000 0.96155  0.17715  0.17812  Biso   1.000  O
  O67      1.0000 0.83380  0.17995  0.17992  Biso   1.000  O
  O68      1.0000 0.34429  0.66977  0.17772  Biso   1.000  O
  O69      1.0000 0.98626  0.09498  0.81326  Biso   1.000  O
  O70      1.0000 0.92407  0.15218  0.76107  Biso   1.000  O
  O71      1.0000 0.83419  0.17937  0.79656  Biso   1.000  O
  O72      1.0000 0.95876  0.18058  0.66958  Biso   1.000  O
  O73      1.0000 0.25713  0.82161  0.08913  Biso   1.000  O
  O74      1.0000 0.31712  0.75992  0.15252  Biso   1.000  O
  O75      1.0000 0.75469  0.31776  0.59928  Biso   1.000  O
  O76      1.0000 0.81688  0.26057  0.65148  Biso   1.000  O
  O77      1.0000 0.90676  0.23337  0.61598  Biso   1.000  O
  O78      1.0000 0.78219  0.23217  0.74297  Biso   1.000  O
  O79      1.0000 0.48382  0.59113  0.32341  Biso   1.000  O
  O80      1.0000 0.42383  0.65282  0.26002  Biso   1.000  O
  O81      1.0000 0.23851  0.90202  0.77416  Biso   1.000  O
  O82      1.0000 0.23982  0.77273  0.90425  Biso   1.000  O
  O83      1.0000 0.93968  0.90300  0.07063  Biso   1.000  O
  O84      1.0000 0.06586  0.77572  0.07463  Biso   1.000  O
  O85      1.0000 0.23803  0.90400  0.07183  Biso   1.000  O
  O86      1.0000 0.50243  0.33795  0.63838  Biso   1.000  O
  O87      1.0000 0.50113  0.34006  0.50829  Biso   1.000  O
  O88      1.0000 0.80127  0.33657  0.34191  Biso   1.000  O
  O89      1.0000 0.67509  0.33947  0.33791  Biso   1.000  O
  O90      1.0000 0.50292  0.63712  0.34071  Biso   1.000  O
  O91      1.0000 0.50244  0.51072  0.63838  Biso   1.000  O
  O92      1.0000 0.50113  0.64001  0.50829  Biso   1.000  O
  O93      1.0000 0.80127  0.50974  0.34191  Biso   1.000  O
  O94      1.0000 0.67509  0.63702  0.33791  Biso   1.000  O
  O95      1.0000 0.50292  0.50874  0.34071  Biso   1.000  O
  O96      1.0000 0.23852  0.07479  0.77416  Biso   1.000  O
  O97      1.0000 0.23982  0.07268  0.90425  Biso   1.000  O
  O98      1.0000 0.93968  0.07617  0.07063  Biso   1.000  O
  O99      1.0000 0.06586  0.07327  0.07463  Biso   1.000  O
  O100     1.0000 0.23803  0.77562  0.07183  Biso   1.000  O
  O101     1.0000 0.12114  0.95620  0.95594  Biso   1.000  O
  O102     1.0000 0.06704  0.07379  0.77486  Biso   1.000  O
  O103     1.0000 0.94107  0.07608  0.89625  Biso   1.000  O
  O104     1.0000 0.61981  0.45654  0.45660  Biso   1.000  O
  O105     1.0000 0.67391  0.33895  0.63768  Biso   1.000  O
