data_image0
_cell_length_a       18.2789
_cell_length_b       18.2789
_cell_length_c       18.2789
_cell_angle_alpha    60
_cell_angle_beta     60
_cell_angle_gamma    60

_symmetry_space_group_name_H-M    "P 1"
_symmetry_int_tables_number       1

loop_
  _symmetry_equiv_pos_as_xyz
  'x, y, z'

loop_
  _atom_site_label
  _atom_site_occupancy
  _atom_site_fract_x
  _atom_site_fract_y
  _atom_site_fract_z
  _atom_site_thermal_displace_type
  _atom_site_B_iso_or_equiv
  _atom_site_type_symbol
  Zn1      1.0000 0.29348  0.29347  0.11958  Biso   1.000  Zn
  Zn2      1.0000 0.29348  0.29347  0.29347  Biso   1.000  Zn
  Zn3      1.0000 0.11959  0.29347  0.29347  Biso   1.000  Zn
  Zn4      1.0000 0.29348  0.11958  0.29347  Biso   1.000  Zn
  Zn5      1.0000 0.70652  0.70653  0.88042  Biso   1.000  Zn
  Zn6      1.0000 0.70652  0.70653  0.70653  Biso   1.000  Zn
  Zn7      1.0000 0.70652  0.88042  0.70653  Biso   1.000  Zn
  Zn8      1.0000 0.88041  0.70653  0.70653  Biso   1.000  Zn
  H1       1.0000 0.45520  0.45520  0.93520  Biso   1.000  H
  H2       1.0000 0.45520  0.45520  0.15440  Biso   1.000  H
  H3       1.0000 0.93520  0.15440  0.45520  Biso   1.000  H
  H4       1.0000 0.15440  0.93520  0.45520  Biso   1.000  H
  H5       1.0000 0.45520  0.93520  0.15440  Biso   1.000  H
  H6       1.0000 0.45520  0.15440  0.93520  Biso   1.000  H
  H7       1.0000 0.93520  0.45520  0.45520  Biso   1.000  H
  H8       1.0000 0.15440  0.45520  0.45520  Biso   1.000  H
  H9       1.0000 0.45520  0.15440  0.45520  Biso   1.000  H
  H10      1.0000 0.45520  0.93520  0.45520  Biso   1.000  H
  H11      1.0000 0.93520  0.45520  0.15440  Biso   1.000  H
  H12      1.0000 0.15440  0.45520  0.93520  Biso   1.000  H
  H13      1.0000 0.54480  0.54480  0.06480  Biso   1.000  H
  H14      1.0000 0.54480  0.54480  0.84560  Biso   1.000  H
  H15      1.0000 0.84560  0.06480  0.54480  Biso   1.000  H
  H16      1.0000 0.06480  0.84560  0.54480  Biso   1.000  H
  H17      1.0000 0.06480  0.54480  0.84560  Biso   1.000  H
  H18      1.0000 0.84560  0.54480  0.06480  Biso   1.000  H
  H19      1.0000 0.54480  0.06480  0.54480  Biso   1.000  H
  H20      1.0000 0.54480  0.84560  0.54480  Biso   1.000  H
  H21      1.0000 0.84560  0.54480  0.54480  Biso   1.000  H
  H22      1.0000 0.06480  0.54480  0.54480  Biso   1.000  H
  H23      1.0000 0.54480  0.06480  0.84560  Biso   1.000  H
  H24      1.0000 0.54480  0.84560  0.06480  Biso   1.000  H
  C1       1.0000 0.47338  0.47338  0.96214  Biso   1.000  C
  C2       1.0000 0.47338  0.47338  0.09110  Biso   1.000  C
  C3       1.0000 0.96214  0.09110  0.47338  Biso   1.000  C
  C4       1.0000 0.09110  0.96214  0.47338  Biso   1.000  C
  C5       1.0000 0.47338  0.96214  0.09110  Biso   1.000  C
  C6       1.0000 0.47338  0.09110  0.96214  Biso   1.000  C
  C7       1.0000 0.96214  0.47338  0.47338  Biso   1.000  C
  C8       1.0000 0.09110  0.47338  0.47338  Biso   1.000  C
  C9       1.0000 0.47338  0.09110  0.47338  Biso   1.000  C
  C10      1.0000 0.47338  0.96214  0.47338  Biso   1.000  C
  C11      1.0000 0.96214  0.47338  0.09110  Biso   1.000  C
  C12      1.0000 0.09110  0.47338  0.96214  Biso   1.000  C
  C13      1.0000 0.52662  0.52662  0.03786  Biso   1.000  C
  C14      1.0000 0.52662  0.52662  0.90890  Biso   1.000  C
  C15      1.0000 0.90890  0.03786  0.52662  Biso   1.000  C
  C16      1.0000 0.03786  0.90890  0.52662  Biso   1.000  C
  C17      1.0000 0.03786  0.52662  0.90890  Biso   1.000  C
  C18      1.0000 0.90890  0.52662  0.03786  Biso   1.000  C
  C19      1.0000 0.52662  0.03786  0.52662  Biso   1.000  C
  C20      1.0000 0.52662  0.90890  0.52662  Biso   1.000  C
  C21      1.0000 0.90890  0.52662  0.52662  Biso   1.000  C
  C22      1.0000 0.03786  0.52662  0.52662  Biso   1.000  C
  C23      1.0000 0.52662  0.03786  0.90890  Biso   1.000  C
  C24      1.0000 0.52662  0.90890  0.03786  Biso   1.000  C
  C25      1.0000 0.38853  0.38853  0.11147  Biso   1.000  C
  C26      1.0000 0.44615  0.44615  0.05385  Biso   1.000  C
  C27      1.0000 0.11147  0.11147  0.38853  Biso   1.000  C
  C28      1.0000 0.05385  0.05385  0.44615  Biso   1.000  C
  C29      1.0000 0.38853  0.11147  0.11147  Biso   1.000  C
  C30      1.0000 0.44615  0.05385  0.05385  Biso   1.000  C
  C31      1.0000 0.11147  0.38853  0.38853  Biso   1.000  C
  C32      1.0000 0.05385  0.44615  0.44615  Biso   1.000  C
  C33      1.0000 0.38853  0.11147  0.38853  Biso   1.000  C
  C34      1.0000 0.44615  0.05385  0.44615  Biso   1.000  C
  C35      1.0000 0.11147  0.38853  0.11147  Biso   1.000  C
  C36      1.0000 0.05385  0.44615  0.05385  Biso   1.000  C
  C37      1.0000 0.61147  0.61147  0.88853  Biso   1.000  C
  C38      1.0000 0.55385  0.55385  0.94615  Biso   1.000  C
  C39      1.0000 0.88853  0.88853  0.61147  Biso   1.000  C
  C40      1.0000 0.94615  0.94615  0.55385  Biso   1.000  C
  C41      1.0000 0.88853  0.61147  0.88853  Biso   1.000  C
  C42      1.0000 0.94615  0.55385  0.94615  Biso   1.000  C
  C43      1.0000 0.61147  0.88853  0.61147  Biso   1.000  C
  C44      1.0000 0.55385  0.94615  0.55385  Biso   1.000  C
  C45      1.0000 0.88853  0.61147  0.61147  Biso   1.000  C
  C46      1.0000 0.94615  0.55385  0.55385  Biso   1.000  C
  C47      1.0000 0.61147  0.88853  0.88853  Biso   1.000  C
  C48      1.0000 0.55385  0.94615  0.94615  Biso   1.000  C
  O1       1.0000 0.25000  0.25000  0.25000  Biso   1.000  O
  O2       1.0000 0.75000  0.75000  0.75000  Biso   1.000  O
  O3       1.0000 0.36624  0.36624  0.07286  Biso   1.000  O
  O4       1.0000 0.36624  0.36624  0.19466  Biso   1.000  O
  O5       1.0000 0.07286  0.19466  0.36624  Biso   1.000  O
  O6       1.0000 0.19466  0.07286  0.36624  Biso   1.000  O
  O7       1.0000 0.36624  0.07286  0.19466  Biso   1.000  O
  O8       1.0000 0.36624  0.19466  0.07286  Biso   1.000  O
  O9       1.0000 0.07286  0.36624  0.36624  Biso   1.000  O
  O10      1.0000 0.19466  0.36624  0.36624  Biso   1.000  O
  O11      1.0000 0.36624  0.19466  0.36624  Biso   1.000  O
  O12      1.0000 0.36624  0.07286  0.36624  Biso   1.000  O
  O13      1.0000 0.07286  0.36624  0.19466  Biso   1.000  O
  O14      1.0000 0.19466  0.36624  0.07286  Biso   1.000  O
  O15      1.0000 0.63376  0.63376  0.92714  Biso   1.000  O
  O16      1.0000 0.63376  0.63376  0.80534  Biso   1.000  O
  O17      1.0000 0.80534  0.92714  0.63376  Biso   1.000  O
  O18      1.0000 0.92714  0.80534  0.63376  Biso   1.000  O
  O19      1.0000 0.92714  0.63376  0.80534  Biso   1.000  O
  O20      1.0000 0.80534  0.63376  0.92714  Biso   1.000  O
  O21      1.0000 0.63376  0.92714  0.63376  Biso   1.000  O
  O22      1.0000 0.63376  0.80534  0.63376  Biso   1.000  O
  O23      1.0000 0.80534  0.63376  0.63376  Biso   1.000  O
  O24      1.0000 0.92714  0.63376  0.63376  Biso   1.000  O
  O25      1.0000 0.63376  0.92714  0.80534  Biso   1.000  O
  O26      1.0000 0.63376  0.80534  0.92714  Biso   1.000  O
  Zn9      1.0000 0.17210  0.97308  0.87104  Biso   1.000  Zn
  Zn10     1.0000 0.58554  0.38651  0.45759  Biso   1.000  Zn
  Zn11     1.0000 0.41143  0.56061  0.45759  Biso   1.000  Zn
  Zn12     1.0000 0.99799  0.14718  0.87104  Biso   1.000  Zn
  Zn13     1.0000 0.99780  0.97288  0.04528  Biso   1.000  Zn
  Zn14     1.0000 0.99793  0.97301  0.87083  Biso   1.000  Zn
  Zn15     1.0000 0.58574  0.56081  0.28335  Biso   1.000  Zn
  Zn16     1.0000 0.58561  0.56068  0.45780  Biso   1.000  Zn
  H25      1.0000 0.83551  0.33130  0.01223  Biso   1.000  H
  H26      1.0000 0.83240  0.11403  0.22583  Biso   1.000  H
  H27      1.0000 0.83913  0.32931  0.71016  Biso   1.000  H
  H28      1.0000 0.83862  0.11286  0.70487  Biso   1.000  H
  H29      1.0000 0.35533  0.11346  0.71196  Biso   1.000  H
  H30      1.0000 0.22731  0.72310  0.31640  Biso   1.000  H
  H31      1.0000 0.44458  0.72621  0.10280  Biso   1.000  H
  H32      1.0000 0.22929  0.71949  0.61847  Biso   1.000  H
  H33      1.0000 0.44575  0.71999  0.62376  Biso   1.000  H
  H34      1.0000 0.44515  0.20328  0.61667  Biso   1.000  H
  H35      1.0000 0.74802  0.20240  0.31640  Biso   1.000  H
  H36      1.0000 0.75113  0.41966  0.10280  Biso   1.000  H
  H37      1.0000 0.74441  0.20438  0.61847  Biso   1.000  H
  H38      1.0000 0.74491  0.42083  0.62376  Biso   1.000  H
  H39      1.0000 0.22820  0.42023  0.61667  Biso   1.000  H
  H40      1.0000 0.35622  0.81059  0.01223  Biso   1.000  H
  H41      1.0000 0.13895  0.80748  0.22583  Biso   1.000  H
  H42      1.0000 0.35424  0.81420  0.71016  Biso   1.000  H
  H43      1.0000 0.13778  0.81370  0.70487  Biso   1.000  H
  H44      1.0000 0.13838  0.33041  0.71196  Biso   1.000  H
  H45      1.0000 0.83681  0.81189  0.01153  Biso   1.000  H
  H46      1.0000 0.83410  0.80918  0.22972  Biso   1.000  H
  H47      1.0000 0.74672  0.72180  0.31710  Biso   1.000  H
  H48      1.0000 0.74943  0.72451  0.09891  Biso   1.000  H
  C49      1.0000 0.90340  0.15688  0.05088  Biso   1.000  C
  C50      1.0000 0.84469  0.21379  0.11119  Biso   1.000  C
  C51      1.0000 0.81864  0.30483  0.07444  Biso   1.000  C
  C52      1.0000 0.81682  0.17614  0.20026  Biso   1.000  C
  C53      1.0000 0.90382  0.15569  0.77467  Biso   1.000  C
  C54      1.0000 0.84800  0.21131  0.71785  Biso   1.000  C
  C55      1.0000 0.82026  0.30365  0.69268  Biso   1.000  C
  C56      1.0000 0.81985  0.17477  0.68929  Biso   1.000  C
  C57      1.0000 0.32907  0.17547  0.69249  Biso   1.000  C
  C58      1.0000 0.40174  0.65520  0.27775  Biso   1.000  C
  C59      1.0000 0.34482  0.71392  0.21744  Biso   1.000  C
  C60      1.0000 0.25378  0.73998  0.25419  Biso   1.000  C
  C61      1.0000 0.38247  0.74178  0.12837  Biso   1.000  C
  C62      1.0000 0.40292  0.65479  0.55396  Biso   1.000  C
  C63      1.0000 0.34730  0.71061  0.61078  Biso   1.000  C
  C64      1.0000 0.25495  0.73836  0.63595  Biso   1.000  C
  C65      1.0000 0.38384  0.73876  0.63934  Biso   1.000  C
  C66      1.0000 0.38314  0.22954  0.63615  Biso   1.000  C
  C67      1.0000 0.68013  0.37682  0.27775  Biso   1.000  C
  C68      1.0000 0.73885  0.31990  0.21744  Biso   1.000  C
  C69      1.0000 0.76490  0.22886  0.25419  Biso   1.000  C
  C70      1.0000 0.76671  0.35755  0.12837  Biso   1.000  C
  C71      1.0000 0.67971  0.37800  0.55396  Biso   1.000  C
  C72      1.0000 0.73553  0.32238  0.61078  Biso   1.000  C
  C73      1.0000 0.76328  0.23004  0.63595  Biso   1.000  C
  C74      1.0000 0.76368  0.35892  0.63934  Biso   1.000  C
  C75      1.0000 0.25446  0.35822  0.63615  Biso   1.000  C
  C76      1.0000 0.18179  0.87849  0.05088  Biso   1.000  C
  C77      1.0000 0.23871  0.81977  0.11119  Biso   1.000  C
  C78      1.0000 0.32975  0.79371  0.07444  Biso   1.000  C
  C79      1.0000 0.20106  0.79191  0.20026  Biso   1.000  C
  C80      1.0000 0.18061  0.87890  0.77467  Biso   1.000  C
  C81      1.0000 0.23623  0.82309  0.71785  Biso   1.000  C
  C82      1.0000 0.32858  0.79533  0.69268  Biso   1.000  C
  C83      1.0000 0.19969  0.79493  0.68929  Biso   1.000  C
  C84      1.0000 0.20039  0.30415  0.69249  Biso   1.000  C
  C85      1.0000 0.90171  0.87679  0.05747  Biso   1.000  C
  C86      1.0000 0.84569  0.82077  0.11039  Biso   1.000  C
  C87      1.0000 0.81913  0.79421  0.07344  Biso   1.000  C
  C88      1.0000 0.81673  0.79181  0.20226  Biso   1.000  C
  C89      1.0000 0.17771  0.15280  0.77986  Biso   1.000  C
  C90      1.0000 0.23783  0.21291  0.71795  Biso   1.000  C
  C91      1.0000 0.68182  0.65690  0.27116  Biso   1.000  C
  C92      1.0000 0.73784  0.71292  0.21824  Biso   1.000  C
  C93      1.0000 0.76440  0.73948  0.25519  Biso   1.000  C
  C94      1.0000 0.76681  0.74188  0.12637  Biso   1.000  C
  C95      1.0000 0.40582  0.38089  0.54877  Biso   1.000  C
  C96      1.0000 0.34570  0.32078  0.61068  Biso   1.000  C
  O27      1.0000 0.92347  0.07130  0.09431  Biso   1.000  O
  O28      1.0000 0.92587  0.19732  0.96829  Biso   1.000  O
  O29      1.0000 0.92319  0.07022  0.79993  Biso   1.000  O
  O30      1.0000 0.92539  0.19583  0.79714  Biso   1.000  O
  O31      1.0000 0.22005  0.06992  0.79943  Biso   1.000  O
  O32      1.0000 0.48731  0.63514  0.23432  Biso   1.000  O
  O33      1.0000 0.36129  0.63273  0.36034  Biso   1.000  O
  O34      1.0000 0.48840  0.63542  0.52870  Biso   1.000  O
  O35      1.0000 0.36278  0.63322  0.53149  Biso   1.000  O
  O36      1.0000 0.48870  0.33856  0.52920  Biso   1.000  O
  O37      1.0000 0.66006  0.46239  0.23432  Biso   1.000  O
  O38      1.0000 0.65766  0.33637  0.36034  Biso   1.000  O
  O39      1.0000 0.66034  0.46347  0.52870  Biso   1.000  O
  O40      1.0000 0.65815  0.33786  0.53149  Biso   1.000  O
  O41      1.0000 0.36348  0.46377  0.52920  Biso   1.000  O
  O42      1.0000 0.09622  0.89856  0.09431  Biso   1.000  O
  O43      1.0000 0.22224  0.90096  0.96829  Biso   1.000  O
  O44      1.0000 0.09514  0.89827  0.79993  Biso   1.000  O
  O45      1.0000 0.22075  0.90047  0.79714  Biso   1.000  O
  O46      1.0000 0.09483  0.19513  0.79943  Biso   1.000  O
  O47      1.0000 0.04131  0.01639  0.91487  Biso   1.000  O
  O48      1.0000 0.92487  0.89995  0.09332  Biso   1.000  O
  O49      1.0000 0.92328  0.89836  0.97299  Biso   1.000  O
  O50      1.0000 0.54222  0.51730  0.41376  Biso   1.000  O
  O51      1.0000 0.65866  0.63374  0.23531  Biso   1.000  O
