data_image0
_cell_length_a       18.2751
_cell_length_b       18.2751
_cell_length_c       18.2751
_cell_angle_alpha    60
_cell_angle_beta     60
_cell_angle_gamma    60

_symmetry_space_group_name_H-M    "P 1"
_symmetry_int_tables_number       1

loop_
  _symmetry_equiv_pos_as_xyz
  'x, y, z'

loop_
  _atom_site_label
  _atom_site_occupancy
  _atom_site_fract_x
  _atom_site_fract_y
  _atom_site_fract_z
  _atom_site_thermal_displace_type
  _atom_site_B_iso_or_equiv
  _atom_site_type_symbol
  C1       1.0000 0.29350  0.29349  0.11952  Biso   1.000  C
  C2       1.0000 0.29350  0.29349  0.29349  Biso   1.000  C
  C3       1.0000 0.11953  0.29349  0.29349  Biso   1.000  C
  C4       1.0000 0.29350  0.11952  0.29349  Biso   1.000  C
  C5       1.0000 0.70650  0.70651  0.88048  Biso   1.000  C
  C6       1.0000 0.70650  0.70651  0.70651  Biso   1.000  C
  C7       1.0000 0.70650  0.88048  0.70651  Biso   1.000  C
  C8       1.0000 0.88047  0.70651  0.70651  Biso   1.000  C
  C9       1.0000 0.45530  0.45530  0.93570  Biso   1.000  C
  C10      1.0000 0.45530  0.45530  0.15370  Biso   1.000  C
  C11      1.0000 0.93570  0.15370  0.45530  Biso   1.000  C
  C12      1.0000 0.15370  0.93570  0.45530  Biso   1.000  C
  C13      1.0000 0.45530  0.93570  0.15370  Biso   1.000  C
  C14      1.0000 0.45530  0.15370  0.93570  Biso   1.000  C
  C15      1.0000 0.93570  0.45530  0.45530  Biso   1.000  C
  C16      1.0000 0.15370  0.45530  0.45530  Biso   1.000  C
  C17      1.0000 0.45530  0.15370  0.45530  Biso   1.000  C
  C18      1.0000 0.45530  0.93570  0.45530  Biso   1.000  C
  C19      1.0000 0.93570  0.45530  0.15370  Biso   1.000  C
  C20      1.0000 0.15370  0.45530  0.93570  Biso   1.000  C
  C21      1.0000 0.54470  0.54470  0.06430  Biso   1.000  C
  C22      1.0000 0.54470  0.54470  0.84630  Biso   1.000  C
  C23      1.0000 0.84630  0.06430  0.54470  Biso   1.000  C
  C24      1.0000 0.06430  0.84630  0.54470  Biso   1.000  C
  C25      1.0000 0.06430  0.54470  0.84630  Biso   1.000  C
  C26      1.0000 0.84630  0.54470  0.06430  Biso   1.000  C
  C27      1.0000 0.54470  0.06430  0.54470  Biso   1.000  C
  C28      1.0000 0.54470  0.84630  0.54470  Biso   1.000  C
  C29      1.0000 0.84630  0.54470  0.54470  Biso   1.000  C
  C30      1.0000 0.06430  0.54470  0.54470  Biso   1.000  C
  C31      1.0000 0.54470  0.06430  0.84630  Biso   1.000  C
  C32      1.0000 0.54470  0.84630  0.06430  Biso   1.000  C
  C33      1.0000 0.47331  0.47331  0.96231  Biso   1.000  C
  C34      1.0000 0.47331  0.47331  0.09107  Biso   1.000  C
  C35      1.0000 0.96231  0.09107  0.47331  Biso   1.000  C
  C36      1.0000 0.09107  0.96231  0.47331  Biso   1.000  C
  C37      1.0000 0.47331  0.96231  0.09107  Biso   1.000  C
  C38      1.0000 0.47331  0.09107  0.96231  Biso   1.000  C
  C39      1.0000 0.96231  0.47331  0.47331  Biso   1.000  C
  C40      1.0000 0.09107  0.47331  0.47331  Biso   1.000  C
  C41      1.0000 0.47331  0.09107  0.47331  Biso   1.000  C
  C42      1.0000 0.47331  0.96231  0.47331  Biso   1.000  C
  C43      1.0000 0.96231  0.47331  0.09107  Biso   1.000  C
  C44      1.0000 0.09107  0.47331  0.96231  Biso   1.000  C
  C45      1.0000 0.52669  0.52669  0.03769  Biso   1.000  C
  C46      1.0000 0.52669  0.52669  0.90893  Biso   1.000  C
  C47      1.0000 0.90893  0.03769  0.52669  Biso   1.000  C
  C48      1.0000 0.03769  0.90893  0.52669  Biso   1.000  C
  C49      1.0000 0.03769  0.52669  0.90893  Biso   1.000  C
  C50      1.0000 0.90893  0.52669  0.03769  Biso   1.000  C
  C51      1.0000 0.52669  0.03769  0.52669  Biso   1.000  C
  C52      1.0000 0.52669  0.90893  0.52669  Biso   1.000  C
  C53      1.0000 0.90893  0.52669  0.52669  Biso   1.000  C
  C54      1.0000 0.03769  0.52669  0.52669  Biso   1.000  C
  C55      1.0000 0.52669  0.03769  0.90893  Biso   1.000  C
  C56      1.0000 0.52669  0.90893  0.03769  Biso   1.000  C
  C57      1.0000 0.38853  0.38853  0.11147  Biso   1.000  C
  C58      1.0000 0.44625  0.44625  0.05375  Biso   1.000  C
  C59      1.0000 0.11147  0.11147  0.38853  Biso   1.000  C
  C60      1.0000 0.05375  0.05375  0.44625  Biso   1.000  C
  C61      1.0000 0.38853  0.11147  0.11147  Biso   1.000  C
  C62      1.0000 0.44625  0.05375  0.05375  Biso   1.000  C
  C63      1.0000 0.11147  0.38853  0.38853  Biso   1.000  C
  C64      1.0000 0.05375  0.44625  0.44625  Biso   1.000  C
  C65      1.0000 0.38853  0.11147  0.38853  Biso   1.000  C
  C66      1.0000 0.44625  0.05375  0.44625  Biso   1.000  C
  C67      1.0000 0.11147  0.38853  0.11147  Biso   1.000  C
  C68      1.0000 0.05375  0.44625  0.05375  Biso   1.000  C
  C69      1.0000 0.61147  0.61147  0.88853  Biso   1.000  C
  C70      1.0000 0.55375  0.55375  0.94625  Biso   1.000  C
  C71      1.0000 0.88853  0.88853  0.61147  Biso   1.000  C
  C72      1.0000 0.94625  0.94625  0.55375  Biso   1.000  C
  C73      1.0000 0.88853  0.61147  0.88853  Biso   1.000  C
  C74      1.0000 0.94625  0.55375  0.94625  Biso   1.000  C
  C75      1.0000 0.61147  0.88853  0.61147  Biso   1.000  C
  C76      1.0000 0.55375  0.94625  0.55375  Biso   1.000  C
  C77      1.0000 0.88853  0.61147  0.61147  Biso   1.000  C
  C78      1.0000 0.94625  0.55375  0.55375  Biso   1.000  C
  C79      1.0000 0.61147  0.88853  0.88853  Biso   1.000  C
  C80      1.0000 0.55375  0.94625  0.94625  Biso   1.000  C
  C81      1.0000 0.25000  0.25000  0.25000  Biso   1.000  C
  C82      1.0000 0.75000  0.75000  0.75000  Biso   1.000  C
  C83      1.0000 0.36609  0.36609  0.07299  Biso   1.000  C
  C84      1.0000 0.36609  0.36609  0.19483  Biso   1.000  C
  C85      1.0000 0.07299  0.19483  0.36609  Biso   1.000  C
  C86      1.0000 0.19483  0.07299  0.36609  Biso   1.000  C
  C87      1.0000 0.36609  0.07299  0.19483  Biso   1.000  C
  C88      1.0000 0.36609  0.19483  0.07299  Biso   1.000  C
  C89      1.0000 0.07299  0.36609  0.36609  Biso   1.000  C
  C90      1.0000 0.19483  0.36609  0.36609  Biso   1.000  C
  C91      1.0000 0.36609  0.19483  0.36609  Biso   1.000  C
  C92      1.0000 0.36609  0.07299  0.36609  Biso   1.000  C
  C93      1.0000 0.07299  0.36609  0.19483  Biso   1.000  C
  C94      1.0000 0.19483  0.36609  0.07299  Biso   1.000  C
  C95      1.0000 0.63391  0.63391  0.92701  Biso   1.000  C
  C96      1.0000 0.63391  0.63391  0.80517  Biso   1.000  C
  C97      1.0000 0.80517  0.92701  0.63391  Biso   1.000  C
  C98      1.0000 0.92701  0.80517  0.63391  Biso   1.000  C
  C99      1.0000 0.92701  0.63391  0.80517  Biso   1.000  C
  C100     1.0000 0.80517  0.63391  0.92701  Biso   1.000  C
  C101     1.0000 0.63391  0.92701  0.63391  Biso   1.000  C
  C102     1.0000 0.63391  0.80517  0.63391  Biso   1.000  C
  C103     1.0000 0.80517  0.63391  0.63391  Biso   1.000  C
  C104     1.0000 0.92701  0.63391  0.63391  Biso   1.000  C
  C105     1.0000 0.63391  0.92701  0.80517  Biso   1.000  C
  C106     1.0000 0.63391  0.80517  0.92701  Biso   1.000  C
  O1       1.0000 0.17213  0.97328  0.87122  Biso   1.000  O
  O2       1.0000 0.58545  0.38659  0.45789  Biso   1.000  O
  O3       1.0000 0.41131  0.56073  0.45789  Biso   1.000  O
  O4       1.0000 0.99799  0.14742  0.87122  Biso   1.000  O
  O5       1.0000 0.99780  0.97308  0.04550  Biso   1.000  O
  O6       1.0000 0.99793  0.97321  0.87101  Biso   1.000  O
  O7       1.0000 0.58565  0.56093  0.28361  Biso   1.000  O
  O8       1.0000 0.58552  0.56080  0.45810  Biso   1.000  O
  O9       1.0000 0.83548  0.33136  0.01244  Biso   1.000  O
  O10      1.0000 0.83236  0.11426  0.22608  Biso   1.000  O
  O11      1.0000 0.83909  0.32938  0.71031  Biso   1.000  O
  O12      1.0000 0.83859  0.11309  0.70501  Biso   1.000  O
  O13      1.0000 0.35520  0.11369  0.71211  Biso   1.000  O
  O14      1.0000 0.22736  0.72325  0.31667  Biso   1.000  O
  O15      1.0000 0.44447  0.72636  0.10303  Biso   1.000  O
  O16      1.0000 0.22934  0.71964  0.61881  Biso   1.000  O
  O17      1.0000 0.44564  0.72014  0.62410  Biso   1.000  O
  O18      1.0000 0.44503  0.20353  0.61701  Biso   1.000  O
  O19      1.0000 0.74797  0.20265  0.31667  Biso   1.000  O
  O20      1.0000 0.75108  0.41975  0.10303  Biso   1.000  O
  O21      1.0000 0.74435  0.20463  0.61881  Biso   1.000  O
  O22      1.0000 0.74486  0.42092  0.62410  Biso   1.000  O
  O23      1.0000 0.22825  0.42032  0.61701  Biso   1.000  O
  O24      1.0000 0.35608  0.81076  0.01244  Biso   1.000  O
  O25      1.0000 0.13898  0.80765  0.22608  Biso   1.000  O
  O26      1.0000 0.35410  0.81437  0.71031  Biso   1.000  O
  O27      1.0000 0.13781  0.81387  0.70501  Biso   1.000  O
  O28      1.0000 0.13841  0.33048  0.71211  Biso   1.000  O
  O29      1.0000 0.83677  0.81206  0.01174  Biso   1.000  O
  O30      1.0000 0.83406  0.80935  0.22998  Biso   1.000  O
  O31      1.0000 0.74667  0.72195  0.31737  Biso   1.000  O
  O32      1.0000 0.74938  0.72466  0.09914  Biso   1.000  O
  O33      1.0000 0.90338  0.15712  0.05109  Biso   1.000  O
  O34      1.0000 0.84465  0.21404  0.11142  Biso   1.000  O
  O35      1.0000 0.81860  0.30490  0.07467  Biso   1.000  O
  O36      1.0000 0.81678  0.17639  0.20051  Biso   1.000  O
  O37      1.0000 0.90380  0.15593  0.77483  Biso   1.000  O
  O38      1.0000 0.84797  0.21157  0.71800  Biso   1.000  O
  O39      1.0000 0.82022  0.30372  0.69283  Biso   1.000  O
  O40      1.0000 0.81981  0.17501  0.68943  Biso   1.000  O
  O41      1.0000 0.32893  0.17571  0.69263  Biso   1.000  O
  O42      1.0000 0.40161  0.65534  0.27802  Biso   1.000  O
  O43      1.0000 0.34469  0.71407  0.21769  Biso   1.000  O
  O44      1.0000 0.25383  0.74013  0.25445  Biso   1.000  O
  O45      1.0000 0.38235  0.74194  0.12860  Biso   1.000  O
  O46      1.0000 0.40280  0.65493  0.55429  Biso   1.000  O
  O47      1.0000 0.34716  0.71075  0.61112  Biso   1.000  O
  O48      1.0000 0.25501  0.73852  0.63629  Biso   1.000  O
  O49      1.0000 0.38371  0.73892  0.63968  Biso   1.000  O
  O50      1.0000 0.38301  0.22979  0.63649  Biso   1.000  O
  O51      1.0000 0.68006  0.37689  0.27802  Biso   1.000  O
  O52      1.0000 0.73879  0.31997  0.21769  Biso   1.000  O
  O53      1.0000 0.76485  0.22912  0.25445  Biso   1.000  O
  O54      1.0000 0.76666  0.35763  0.12860  Biso   1.000  O
  O55      1.0000 0.67965  0.37808  0.55429  Biso   1.000  O
  O56      1.0000 0.73547  0.32245  0.61112  Biso   1.000  O
  O57      1.0000 0.76323  0.23029  0.63629  Biso   1.000  O
  O58      1.0000 0.76364  0.35900  0.63968  Biso   1.000  O
  O59      1.0000 0.25451  0.35830  0.63649  Biso   1.000  O
  O60      1.0000 0.18183  0.87867  0.05109  Biso   1.000  O
  O61      1.0000 0.23876  0.81994  0.11142  Biso   1.000  O
  O62      1.0000 0.32962  0.79388  0.07467  Biso   1.000  O
  O63      1.0000 0.20110  0.79207  0.20051  Biso   1.000  O
  O64      1.0000 0.18065  0.87908  0.77483  Biso   1.000  O
  O65      1.0000 0.23628  0.82326  0.71800  Biso   1.000  O
  O66      1.0000 0.32844  0.79549  0.69283  Biso   1.000  O
  O67      1.0000 0.19973  0.79509  0.68943  Biso   1.000  O
  O68      1.0000 0.20044  0.30422  0.69263  Biso   1.000  O
  O69      1.0000 0.90169  0.87697  0.05769  Biso   1.000  O
  O70      1.0000 0.84566  0.82094  0.11062  Biso   1.000  O
  O71      1.0000 0.81909  0.79438  0.07367  Biso   1.000  O
  O72      1.0000 0.81669  0.79197  0.20251  Biso   1.000  O
  O73      1.0000 0.17775  0.15304  0.78002  Biso   1.000  O
  O74      1.0000 0.23788  0.21316  0.71810  Biso   1.000  O
  O75      1.0000 0.68176  0.65704  0.27143  Biso   1.000  O
  O76      1.0000 0.73779  0.71307  0.21849  Biso   1.000  O
  O77      1.0000 0.76435  0.73964  0.25545  Biso   1.000  O
  O78      1.0000 0.76676  0.74204  0.12660  Biso   1.000  O
  O79      1.0000 0.40570  0.38097  0.54909  Biso   1.000  O
  O80      1.0000 0.34557  0.32085  0.61102  Biso   1.000  O
  O81      1.0000 0.92346  0.07152  0.09454  Biso   1.000  O
  O82      1.0000 0.92586  0.19757  0.96849  Biso   1.000  O
  O83      1.0000 0.92317  0.07044  0.80010  Biso   1.000  O
  O84      1.0000 0.92537  0.19608  0.79730  Biso   1.000  O
  O85      1.0000 0.22010  0.07014  0.79960  Biso   1.000  O
  O86      1.0000 0.48721  0.63527  0.23457  Biso   1.000  O
  O87      1.0000 0.36116  0.63287  0.36062  Biso   1.000  O
  O88      1.0000 0.48829  0.63555  0.52902  Biso   1.000  O
  O89      1.0000 0.36265  0.63336  0.53181  Biso   1.000  O
  O90      1.0000 0.48859  0.33863  0.52952  Biso   1.000  O
  O91      1.0000 0.65999  0.46249  0.23457  Biso   1.000  O
  O92      1.0000 0.65759  0.33644  0.36062  Biso   1.000  O
  O93      1.0000 0.66027  0.46357  0.52902  Biso   1.000  O
  O94      1.0000 0.65808  0.33793  0.53181  Biso   1.000  O
  O95      1.0000 0.36335  0.46387  0.52952  Biso   1.000  O
  O96      1.0000 0.09624  0.89874  0.09454  Biso   1.000  O
  O97      1.0000 0.22229  0.90115  0.96849  Biso   1.000  O
  O98      1.0000 0.09516  0.89846  0.80010  Biso   1.000  O
  O99      1.0000 0.22080  0.90066  0.79730  Biso   1.000  O
  O100     1.0000 0.09485  0.19538  0.79960  Biso   1.000  O
  O101     1.0000 0.04132  0.01660  0.91506  Biso   1.000  O
  O102     1.0000 0.92486  0.90014  0.09354  Biso   1.000  O
  O103     1.0000 0.92327  0.89855  0.97319  Biso   1.000  O
  O104     1.0000 0.54213  0.51741  0.41406  Biso   1.000  O
  O105     1.0000 0.65859  0.63387  0.23557  Biso   1.000  O
