data_image0
_cell_length_a       18.2507
_cell_length_b       18.2507
_cell_length_c       18.2507
_cell_angle_alpha    60
_cell_angle_beta     60
_cell_angle_gamma    60

_symmetry_space_group_name_H-M    "P 1"
_symmetry_int_tables_number       1

loop_
  _symmetry_equiv_pos_as_xyz
  'x, y, z'

loop_
  _atom_site_label
  _atom_site_occupancy
  _atom_site_fract_x
  _atom_site_fract_y
  _atom_site_fract_z
  _atom_site_thermal_displace_type
  _atom_site_B_iso_or_equiv
  _atom_site_type_symbol
  Zn1      1.0000 0.29354  0.29353  0.11940  Biso   1.000  Zn
  Zn2      1.0000 0.29354  0.29353  0.29353  Biso   1.000  Zn
  Zn3      1.0000 0.11941  0.29353  0.29353  Biso   1.000  Zn
  Zn4      1.0000 0.29354  0.11940  0.29353  Biso   1.000  Zn
  Zn5      1.0000 0.70646  0.70647  0.88060  Biso   1.000  Zn
  Zn6      1.0000 0.70646  0.70647  0.70647  Biso   1.000  Zn
  Zn7      1.0000 0.70646  0.88060  0.70647  Biso   1.000  Zn
  Zn8      1.0000 0.88059  0.70647  0.70647  Biso   1.000  Zn
  H1       1.0000 0.45580  0.45580  0.93620  Biso   1.000  H
  H2       1.0000 0.45580  0.45580  0.15220  Biso   1.000  H
  H3       1.0000 0.93620  0.15220  0.45580  Biso   1.000  H
  H4       1.0000 0.15220  0.93620  0.45580  Biso   1.000  H
  H5       1.0000 0.45580  0.93620  0.15220  Biso   1.000  H
  H6       1.0000 0.45580  0.15220  0.93620  Biso   1.000  H
  H7       1.0000 0.93620  0.45580  0.45580  Biso   1.000  H
  H8       1.0000 0.15220  0.45580  0.45580  Biso   1.000  H
  H9       1.0000 0.45580  0.15220  0.45580  Biso   1.000  H
  H10      1.0000 0.45580  0.93620  0.45580  Biso   1.000  H
  H11      1.0000 0.93620  0.45580  0.15220  Biso   1.000  H
  H12      1.0000 0.15220  0.45580  0.93620  Biso   1.000  H
  H13      1.0000 0.54420  0.54420  0.06380  Biso   1.000  H
  H14      1.0000 0.54420  0.54420  0.84780  Biso   1.000  H
  H15      1.0000 0.84780  0.06380  0.54420  Biso   1.000  H
  H16      1.0000 0.06380  0.84780  0.54420  Biso   1.000  H
  H17      1.0000 0.06380  0.54420  0.84780  Biso   1.000  H
  H18      1.0000 0.84780  0.54420  0.06380  Biso   1.000  H
  H19      1.0000 0.54420  0.06380  0.54420  Biso   1.000  H
  H20      1.0000 0.54420  0.84780  0.54420  Biso   1.000  H
  H21      1.0000 0.84780  0.54420  0.54420  Biso   1.000  H
  H22      1.0000 0.06380  0.54420  0.54420  Biso   1.000  H
  H23      1.0000 0.54420  0.06380  0.84780  Biso   1.000  H
  H24      1.0000 0.54420  0.84780  0.06380  Biso   1.000  H
  C1       1.0000 0.47349  0.47349  0.96297  Biso   1.000  C
  C2       1.0000 0.47349  0.47349  0.09005  Biso   1.000  C
  C3       1.0000 0.96297  0.09005  0.47349  Biso   1.000  C
  C4       1.0000 0.09005  0.96297  0.47349  Biso   1.000  C
  C5       1.0000 0.47349  0.96297  0.09005  Biso   1.000  C
  C6       1.0000 0.47349  0.09005  0.96297  Biso   1.000  C
  C7       1.0000 0.96297  0.47349  0.47349  Biso   1.000  C
  C8       1.0000 0.09005  0.47349  0.47349  Biso   1.000  C
  C9       1.0000 0.47349  0.09005  0.47349  Biso   1.000  C
  C10      1.0000 0.47349  0.96297  0.47349  Biso   1.000  C
  C11      1.0000 0.96297  0.47349  0.09005  Biso   1.000  C
  C12      1.0000 0.09005  0.47349  0.96297  Biso   1.000  C
  C13      1.0000 0.52651  0.52651  0.03703  Biso   1.000  C
  C14      1.0000 0.52651  0.52651  0.90995  Biso   1.000  C
  C15      1.0000 0.90995  0.03703  0.52651  Biso   1.000  C
  C16      1.0000 0.03703  0.90995  0.52651  Biso   1.000  C
  C17      1.0000 0.03703  0.52651  0.90995  Biso   1.000  C
  C18      1.0000 0.90995  0.52651  0.03703  Biso   1.000  C
  C19      1.0000 0.52651  0.03703  0.52651  Biso   1.000  C
  C20      1.0000 0.52651  0.90995  0.52651  Biso   1.000  C
  C21      1.0000 0.90995  0.52651  0.52651  Biso   1.000  C
  C22      1.0000 0.03703  0.52651  0.52651  Biso   1.000  C
  C23      1.0000 0.52651  0.03703  0.90995  Biso   1.000  C
  C24      1.0000 0.52651  0.90995  0.03703  Biso   1.000  C
  C25      1.0000 0.38859  0.38859  0.11141  Biso   1.000  C
  C26      1.0000 0.44630  0.44630  0.05370  Biso   1.000  C
  C27      1.0000 0.11141  0.11141  0.38859  Biso   1.000  C
  C28      1.0000 0.05370  0.05370  0.44630  Biso   1.000  C
  C29      1.0000 0.38859  0.11141  0.11141  Biso   1.000  C
  C30      1.0000 0.44630  0.05370  0.05370  Biso   1.000  C
  C31      1.0000 0.11141  0.38859  0.38859  Biso   1.000  C
  C32      1.0000 0.05370  0.44630  0.44630  Biso   1.000  C
  C33      1.0000 0.38859  0.11141  0.38859  Biso   1.000  C
  C34      1.0000 0.44630  0.05370  0.44630  Biso   1.000  C
  C35      1.0000 0.11141  0.38859  0.11141  Biso   1.000  C
  C36      1.0000 0.05370  0.44630  0.05370  Biso   1.000  C
  C37      1.0000 0.61141  0.61141  0.88859  Biso   1.000  C
  C38      1.0000 0.55370  0.55370  0.94630  Biso   1.000  C
  C39      1.0000 0.88859  0.88859  0.61141  Biso   1.000  C
  C40      1.0000 0.94630  0.94630  0.55370  Biso   1.000  C
  C41      1.0000 0.88859  0.61141  0.88859  Biso   1.000  C
  C42      1.0000 0.94630  0.55370  0.94630  Biso   1.000  C
  C43      1.0000 0.61141  0.88859  0.61141  Biso   1.000  C
  C44      1.0000 0.55370  0.94630  0.55370  Biso   1.000  C
  C45      1.0000 0.88859  0.61141  0.61141  Biso   1.000  C
  C46      1.0000 0.94630  0.55370  0.55370  Biso   1.000  C
  C47      1.0000 0.61141  0.88859  0.88859  Biso   1.000  C
  C48      1.0000 0.55370  0.94630  0.94630  Biso   1.000  C
  O1       1.0000 0.25000  0.25000  0.25000  Biso   1.000  O
  O2       1.0000 0.75000  0.75000  0.75000  Biso   1.000  O
  O3       1.0000 0.36605  0.36605  0.07321  Biso   1.000  O
  O4       1.0000 0.36605  0.36605  0.19469  Biso   1.000  O
  O5       1.0000 0.07321  0.19469  0.36605  Biso   1.000  O
  O6       1.0000 0.19469  0.07321  0.36605  Biso   1.000  O
  O7       1.0000 0.36605  0.07321  0.19469  Biso   1.000  O
  O8       1.0000 0.36605  0.19469  0.07321  Biso   1.000  O
  O9       1.0000 0.07321  0.36605  0.36605  Biso   1.000  O
  O10      1.0000 0.19469  0.36605  0.36605  Biso   1.000  O
  O11      1.0000 0.36605  0.19469  0.36605  Biso   1.000  O
  O12      1.0000 0.36605  0.07321  0.36605  Biso   1.000  O
  O13      1.0000 0.07321  0.36605  0.19469  Biso   1.000  O
  O14      1.0000 0.19469  0.36605  0.07321  Biso   1.000  O
  O15      1.0000 0.63395  0.63395  0.92679  Biso   1.000  O
  O16      1.0000 0.63395  0.63395  0.80531  Biso   1.000  O
  O17      1.0000 0.80531  0.92679  0.63395  Biso   1.000  O
  O18      1.0000 0.92679  0.80531  0.63395  Biso   1.000  O
  O19      1.0000 0.92679  0.63395  0.80531  Biso   1.000  O
  O20      1.0000 0.80531  0.63395  0.92679  Biso   1.000  O
  O21      1.0000 0.63395  0.92679  0.63395  Biso   1.000  O
  O22      1.0000 0.63395  0.80531  0.63395  Biso   1.000  O
  O23      1.0000 0.80531  0.63395  0.63395  Biso   1.000  O
  O24      1.0000 0.92679  0.63395  0.63395  Biso   1.000  O
  O25      1.0000 0.63395  0.92679  0.80531  Biso   1.000  O
  O26      1.0000 0.63395  0.80531  0.92679  Biso   1.000  O
  Zn9      1.0000 0.68619  0.34957  0.46975  Biso   1.000  Zn
  Zn10     1.0000 0.50722  0.34957  0.64872  Biso   1.000  Zn
  Zn11     1.0000 0.50722  0.52854  0.46975  Biso   1.000  Zn
  Zn12     1.0000 0.50722  0.34957  0.46975  Biso   1.000  Zn
  Zn13     1.0000 0.08986  0.93904  0.88713  Biso   1.000  Zn
  Zn14     1.0000 0.91777  0.93904  0.05922  Biso   1.000  Zn
  Zn15     1.0000 0.08986  0.93904  0.05922  Biso   1.000  Zn
  Zn16     1.0000 0.08986  0.76695  0.05922  Biso   1.000  Zn
  H25      1.0000 0.94663  0.10230  0.70385  Biso   1.000  H
  H26      1.0000 0.73449  0.10230  0.91599  Biso   1.000  H
  H27      1.0000 0.25312  0.79581  0.22248  Biso   1.000  H
  H28      1.0000 0.25312  0.58367  0.22248  Biso   1.000  H
  H29      1.0000 0.25312  0.58367  0.91599  Biso   1.000  H
  H30      1.0000 0.25312  0.79581  0.70385  Biso   1.000  H
  H31      1.0000 0.94663  0.10230  0.22248  Biso   1.000  H
  H32      1.0000 0.73449  0.10230  0.22248  Biso   1.000  H
  H33      1.0000 0.73449  0.79581  0.22248  Biso   1.000  H
  H34      1.0000 0.94663  0.58367  0.22248  Biso   1.000  H
  H35      1.0000 0.25312  0.10230  0.91599  Biso   1.000  H
  H36      1.0000 0.25312  0.10230  0.70385  Biso   1.000  H
  C49      1.0000 0.83669  0.16914  0.68011  Biso   1.000  C
  C50      1.0000 0.88475  0.11889  0.73255  Biso   1.000  C
  C51      1.0000 0.71075  0.16914  0.80604  Biso   1.000  C
  C52      1.0000 0.76319  0.11889  0.85411  Biso   1.000  C
  C53      1.0000 0.31996  0.68586  0.28932  Biso   1.000  C
  C54      1.0000 0.26971  0.73393  0.23906  Biso   1.000  C
  C55      1.0000 0.31996  0.55993  0.28932  Biso   1.000  C
  C56      1.0000 0.26971  0.61237  0.23906  Biso   1.000  C
  C57      1.0000 0.31996  0.55993  0.80604  Biso   1.000  C
  C58      1.0000 0.26971  0.61237  0.85411  Biso   1.000  C
  C59      1.0000 0.31996  0.68586  0.68011  Biso   1.000  C
  C60      1.0000 0.26971  0.73393  0.73255  Biso   1.000  C
  C61      1.0000 0.83669  0.16914  0.28932  Biso   1.000  C
  C62      1.0000 0.88476  0.11889  0.23906  Biso   1.000  C
  C63      1.0000 0.71075  0.16914  0.28932  Biso   1.000  C
  C64      1.0000 0.76319  0.11889  0.23906  Biso   1.000  C
  C65      1.0000 0.71075  0.68586  0.28932  Biso   1.000  C
  C66      1.0000 0.76319  0.73393  0.23906  Biso   1.000  C
  C67      1.0000 0.83669  0.55993  0.28932  Biso   1.000  C
  C68      1.0000 0.88475  0.61237  0.23906  Biso   1.000  C
  C69      1.0000 0.31996  0.16914  0.80604  Biso   1.000  C
  C70      1.0000 0.26971  0.11889  0.85411  Biso   1.000  C
  C71      1.0000 0.31996  0.16914  0.68011  Biso   1.000  C
  C72      1.0000 0.26971  0.11889  0.73255  Biso   1.000  C
  C73      1.0000 0.68582  0.25703  0.65518  Biso   1.000  C
  C74      1.0000 0.74939  0.19347  0.71874  Biso   1.000  C
  C75      1.0000 0.90621  0.03665  0.87556  Biso   1.000  C
  C76      1.0000 0.85605  0.08681  0.82541  Biso   1.000  C
  C77      1.0000 0.40786  0.53500  0.37721  Biso   1.000  C
  C78      1.0000 0.34429  0.59856  0.31365  Biso   1.000  C
  C79      1.0000 0.18747  0.75539  0.15683  Biso   1.000  C
  C80      1.0000 0.23763  0.70523  0.20698  Biso   1.000  C
  C81      1.0000 0.40786  0.53500  0.65518  Biso   1.000  C
  C82      1.0000 0.34429  0.59857  0.71874  Biso   1.000  C
  C83      1.0000 0.18747  0.75539  0.87556  Biso   1.000  C
  C84      1.0000 0.23763  0.70523  0.82541  Biso   1.000  C
  C85      1.0000 0.68582  0.25703  0.37721  Biso   1.000  C
  C86      1.0000 0.74939  0.19347  0.31365  Biso   1.000  C
  C87      1.0000 0.90621  0.03665  0.15683  Biso   1.000  C
  C88      1.0000 0.85605  0.08681  0.20698  Biso   1.000  C
  C89      1.0000 0.68582  0.53500  0.37721  Biso   1.000  C
  C90      1.0000 0.74939  0.59856  0.31365  Biso   1.000  C
  C91      1.0000 0.90621  0.75539  0.15683  Biso   1.000  C
  C92      1.0000 0.85605  0.70523  0.20698  Biso   1.000  C
  C93      1.0000 0.40786  0.25703  0.65518  Biso   1.000  C
  C94      1.0000 0.34429  0.19347  0.71874  Biso   1.000  C
  C95      1.0000 0.18747  0.03665  0.87556  Biso   1.000  C
  C96      1.0000 0.23763  0.08681  0.82541  Biso   1.000  C
  O27      1.0000 0.04684  0.89602  0.01620  Biso   1.000  O
  O28      1.0000 0.55709  0.39260  0.51278  Biso   1.000  O
  O29      1.0000 0.72436  0.27888  0.57295  Biso   1.000  O
  O30      1.0000 0.99092  0.01192  0.84031  Biso   1.000  O
  O31      1.0000 0.60359  0.27888  0.69372  Biso   1.000  O
  O32      1.0000 0.87095  0.01192  0.96028  Biso   1.000  O
  O33      1.0000 0.42971  0.57354  0.39906  Biso   1.000  O
  O34      1.0000 0.16274  0.84010  0.13210  Biso   1.000  O
  O35      1.0000 0.42971  0.45277  0.39906  Biso   1.000  O
  O36      1.0000 0.16274  0.72013  0.13210  Biso   1.000  O
  O37      1.0000 0.42971  0.45277  0.69372  Biso   1.000  O
  O38      1.0000 0.16274  0.72013  0.96028  Biso   1.000  O
  O39      1.0000 0.42971  0.57354  0.57295  Biso   1.000  O
  O40      1.0000 0.16274  0.84010  0.84031  Biso   1.000  O
  O41      1.0000 0.72436  0.27888  0.39906  Biso   1.000  O
  O42      1.0000 0.99092  0.01192  0.13210  Biso   1.000  O
  O43      1.0000 0.60359  0.27888  0.39906  Biso   1.000  O
  O44      1.0000 0.87095  0.01192  0.13210  Biso   1.000  O
  O45      1.0000 0.60359  0.57354  0.39906  Biso   1.000  O
  O46      1.0000 0.87095  0.84010  0.13210  Biso   1.000  O
  O47      1.0000 0.72436  0.45277  0.39906  Biso   1.000  O
  O48      1.0000 0.99092  0.72013  0.13210  Biso   1.000  O
  O49      1.0000 0.42971  0.27888  0.69372  Biso   1.000  O
  O50      1.0000 0.16274  0.01192  0.96028  Biso   1.000  O
  O51      1.0000 0.42971  0.27888  0.57295  Biso   1.000  O
