data_image0
_cell_length_a       18.228
_cell_length_b       18.228
_cell_length_c       18.228
_cell_angle_alpha    60
_cell_angle_beta     60
_cell_angle_gamma    60

_symmetry_space_group_name_H-M    "P 1"
_symmetry_int_tables_number       1

loop_
  _symmetry_equiv_pos_as_xyz
  'x, y, z'

loop_
  _atom_site_label
  _atom_site_occupancy
  _atom_site_fract_x
  _atom_site_fract_y
  _atom_site_fract_z
  _atom_site_thermal_displace_type
  _atom_site_B_iso_or_equiv
  _atom_site_type_symbol
  Zn1      1.0000 0.29358  0.29359  0.11924  Biso   1.000  Zn
  Zn2      1.0000 0.29358  0.29359  0.29359  Biso   1.000  Zn
  Zn3      1.0000 0.11923  0.29359  0.29359  Biso   1.000  Zn
  Zn4      1.0000 0.29358  0.11924  0.29359  Biso   1.000  Zn
  Zn5      1.0000 0.70642  0.70641  0.88076  Biso   1.000  Zn
  Zn6      1.0000 0.70642  0.70641  0.70641  Biso   1.000  Zn
  Zn7      1.0000 0.70642  0.88076  0.70641  Biso   1.000  Zn
  Zn8      1.0000 0.88077  0.70641  0.70641  Biso   1.000  Zn
  H1       1.0000 0.45570  0.45570  0.93670  Biso   1.000  H
  H2       1.0000 0.45570  0.45570  0.15190  Biso   1.000  H
  H3       1.0000 0.93670  0.15190  0.45570  Biso   1.000  H
  H4       1.0000 0.15190  0.93670  0.45570  Biso   1.000  H
  H5       1.0000 0.45570  0.93670  0.15190  Biso   1.000  H
  H6       1.0000 0.45570  0.15190  0.93670  Biso   1.000  H
  H7       1.0000 0.93670  0.45570  0.45570  Biso   1.000  H
  H8       1.0000 0.15190  0.45570  0.45570  Biso   1.000  H
  H9       1.0000 0.45570  0.15190  0.45570  Biso   1.000  H
  H10      1.0000 0.45570  0.93670  0.45570  Biso   1.000  H
  H11      1.0000 0.93670  0.45570  0.15190  Biso   1.000  H
  H12      1.0000 0.15190  0.45570  0.93670  Biso   1.000  H
  H13      1.0000 0.54430  0.54430  0.06330  Biso   1.000  H
  H14      1.0000 0.54430  0.54430  0.84810  Biso   1.000  H
  H15      1.0000 0.84810  0.06330  0.54430  Biso   1.000  H
  H16      1.0000 0.06330  0.84810  0.54430  Biso   1.000  H
  H17      1.0000 0.06330  0.54430  0.84810  Biso   1.000  H
  H18      1.0000 0.84810  0.54430  0.06330  Biso   1.000  H
  H19      1.0000 0.54430  0.06330  0.54430  Biso   1.000  H
  H20      1.0000 0.54430  0.84810  0.54430  Biso   1.000  H
  H21      1.0000 0.84810  0.54430  0.54430  Biso   1.000  H
  H22      1.0000 0.06330  0.54430  0.54430  Biso   1.000  H
  H23      1.0000 0.54430  0.06330  0.84810  Biso   1.000  H
  H24      1.0000 0.54430  0.84810  0.06330  Biso   1.000  H
  C1       1.0000 0.47340  0.47340  0.96356  Biso   1.000  C
  C2       1.0000 0.47340  0.47340  0.08964  Biso   1.000  C
  C3       1.0000 0.96356  0.08964  0.47340  Biso   1.000  C
  C4       1.0000 0.08964  0.96356  0.47340  Biso   1.000  C
  C5       1.0000 0.47340  0.96356  0.08964  Biso   1.000  C
  C6       1.0000 0.47340  0.08964  0.96356  Biso   1.000  C
  C7       1.0000 0.96356  0.47340  0.47340  Biso   1.000  C
  C8       1.0000 0.08964  0.47340  0.47340  Biso   1.000  C
  C9       1.0000 0.47340  0.08964  0.47340  Biso   1.000  C
  C10      1.0000 0.47340  0.96356  0.47340  Biso   1.000  C
  C11      1.0000 0.96356  0.47340  0.08964  Biso   1.000  C
  C12      1.0000 0.08964  0.47340  0.96356  Biso   1.000  C
  C13      1.0000 0.52660  0.52660  0.03644  Biso   1.000  C
  C14      1.0000 0.52660  0.52660  0.91036  Biso   1.000  C
  C15      1.0000 0.91036  0.03644  0.52660  Biso   1.000  C
  C16      1.0000 0.03644  0.91036  0.52660  Biso   1.000  C
  C17      1.0000 0.03644  0.52660  0.91036  Biso   1.000  C
  C18      1.0000 0.91036  0.52660  0.03644  Biso   1.000  C
  C19      1.0000 0.52660  0.03644  0.52660  Biso   1.000  C
  C20      1.0000 0.52660  0.91036  0.52660  Biso   1.000  C
  C21      1.0000 0.91036  0.52660  0.52660  Biso   1.000  C
  C22      1.0000 0.03644  0.52660  0.52660  Biso   1.000  C
  C23      1.0000 0.52660  0.03644  0.91036  Biso   1.000  C
  C24      1.0000 0.52660  0.91036  0.03644  Biso   1.000  C
  C25      1.0000 0.38850  0.38850  0.11150  Biso   1.000  C
  C26      1.0000 0.44610  0.44610  0.05390  Biso   1.000  C
  C27      1.0000 0.11150  0.11150  0.38850  Biso   1.000  C
  C28      1.0000 0.05390  0.05390  0.44610  Biso   1.000  C
  C29      1.0000 0.38850  0.11150  0.11150  Biso   1.000  C
  C30      1.0000 0.44610  0.05390  0.05390  Biso   1.000  C
  C31      1.0000 0.11150  0.38850  0.38850  Biso   1.000  C
  C32      1.0000 0.05390  0.44610  0.44610  Biso   1.000  C
  C33      1.0000 0.38850  0.11150  0.38850  Biso   1.000  C
  C34      1.0000 0.44610  0.05390  0.44610  Biso   1.000  C
  C35      1.0000 0.11150  0.38850  0.11150  Biso   1.000  C
  C36      1.0000 0.05390  0.44610  0.05390  Biso   1.000  C
  C37      1.0000 0.61150  0.61150  0.88850  Biso   1.000  C
  C38      1.0000 0.55390  0.55390  0.94610  Biso   1.000  C
  C39      1.0000 0.88850  0.88850  0.61150  Biso   1.000  C
  C40      1.0000 0.94610  0.94610  0.55390  Biso   1.000  C
  C41      1.0000 0.88850  0.61150  0.88850  Biso   1.000  C
  C42      1.0000 0.94610  0.55390  0.94610  Biso   1.000  C
  C43      1.0000 0.61150  0.88850  0.61150  Biso   1.000  C
  C44      1.0000 0.55390  0.94610  0.55390  Biso   1.000  C
  C45      1.0000 0.88850  0.61150  0.61150  Biso   1.000  C
  C46      1.0000 0.94610  0.55390  0.55390  Biso   1.000  C
  C47      1.0000 0.61150  0.88850  0.88850  Biso   1.000  C
  C48      1.0000 0.55390  0.94610  0.94610  Biso   1.000  C
  O1       1.0000 0.25000  0.25000  0.25000  Biso   1.000  O
  O2       1.0000 0.75000  0.75000  0.75000  Biso   1.000  O
  O3       1.0000 0.36610  0.36610  0.07322  Biso   1.000  O
  O4       1.0000 0.36610  0.36610  0.19458  Biso   1.000  O
  O5       1.0000 0.07322  0.19458  0.36610  Biso   1.000  O
  O6       1.0000 0.19458  0.07322  0.36610  Biso   1.000  O
  O7       1.0000 0.36610  0.07322  0.19458  Biso   1.000  O
  O8       1.0000 0.36610  0.19458  0.07322  Biso   1.000  O
  O9       1.0000 0.07322  0.36610  0.36610  Biso   1.000  O
  O10      1.0000 0.19458  0.36610  0.36610  Biso   1.000  O
  O11      1.0000 0.36610  0.19458  0.36610  Biso   1.000  O
  O12      1.0000 0.36610  0.07322  0.36610  Biso   1.000  O
  O13      1.0000 0.07322  0.36610  0.19458  Biso   1.000  O
  O14      1.0000 0.19458  0.36610  0.07322  Biso   1.000  O
  O15      1.0000 0.63390  0.63390  0.92678  Biso   1.000  O
  O16      1.0000 0.63390  0.63390  0.80542  Biso   1.000  O
  O17      1.0000 0.80542  0.92678  0.63390  Biso   1.000  O
  O18      1.0000 0.92678  0.80542  0.63390  Biso   1.000  O
  O19      1.0000 0.92678  0.63390  0.80542  Biso   1.000  O
  O20      1.0000 0.80542  0.63390  0.92678  Biso   1.000  O
  O21      1.0000 0.63390  0.92678  0.63390  Biso   1.000  O
  O22      1.0000 0.63390  0.80542  0.63390  Biso   1.000  O
  O23      1.0000 0.80542  0.63390  0.63390  Biso   1.000  O
  O24      1.0000 0.92678  0.63390  0.63390  Biso   1.000  O
  O25      1.0000 0.63390  0.92678  0.80542  Biso   1.000  O
  O26      1.0000 0.63390  0.80542  0.92678  Biso   1.000  O
  Zn9      1.0000 0.68705  0.35000  0.47033  Biso   1.000  Zn
  Zn10     1.0000 0.09885  0.76180  0.05852  Biso   1.000  Zn
  Zn11     1.0000 0.92426  0.93639  0.05852  Biso   1.000  Zn
  Zn12     1.0000 0.51245  0.52459  0.47033  Biso   1.000  Zn
  Zn13     1.0000 0.51226  0.34980  0.64506  Biso   1.000  Zn
  Zn14     1.0000 0.51239  0.34993  0.47012  Biso   1.000  Zn
  Zn15     1.0000 0.09905  0.93659  0.88379  Biso   1.000  Zn
  Zn16     1.0000 0.09892  0.93646  0.05873  Biso   1.000  Zn
  H25      1.0000 0.34952  0.70643  0.61192  Biso   1.000  H
  H26      1.0000 0.34640  0.49135  0.82611  Biso   1.000  H
  H27      1.0000 0.35314  0.70444  0.30900  Biso   1.000  H
  H28      1.0000 0.35264  0.49018  0.30369  Biso   1.000  H
  H29      1.0000 0.86800  0.49078  0.31080  Biso   1.000  H
  H30      1.0000 0.74241  0.09933  0.91693  Biso   1.000  H
  H31      1.0000 0.95750  0.10245  0.70274  Biso   1.000  H
  H32      1.0000 0.74440  0.09571  0.21985  Biso   1.000  H
  H33      1.0000 0.95867  0.09621  0.22516  Biso   1.000  H
  H34      1.0000 0.95807  0.58085  0.21805  Biso   1.000  H
  H35      1.0000 0.26178  0.57996  0.91693  Biso   1.000  H
  H36      1.0000 0.26490  0.79504  0.70274  Biso   1.000  H
  H37      1.0000 0.25816  0.58195  0.21985  Biso   1.000  H
  H38      1.0000 0.25867  0.79622  0.22516  Biso   1.000  H
  H39      1.0000 0.74330  0.79562  0.21805  Biso   1.000  H
  H40      1.0000 0.86889  0.18706  0.61192  Biso   1.000  H
  H41      1.0000 0.65380  0.18395  0.82611  Biso   1.000  H
  H42      1.0000 0.86690  0.19068  0.30900  Biso   1.000  H
  H43      1.0000 0.65263  0.19018  0.30369  Biso   1.000  H
  H44      1.0000 0.65324  0.70554  0.31080  Biso   1.000  H
  H45      1.0000 0.35082  0.18836  0.61122  Biso   1.000  H
  H46      1.0000 0.34810  0.18565  0.83001  Biso   1.000  H
  H47      1.0000 0.26048  0.09803  0.91763  Biso   1.000  H
  H48      1.0000 0.26320  0.10074  0.69884  Biso   1.000  H
  C49      1.0000 0.41760  0.53432  0.65067  Biso   1.000  C
  C50      1.0000 0.35872  0.59139  0.71115  Biso   1.000  C
  C51      1.0000 0.33260  0.67989  0.67430  Biso   1.000  C
  C52      1.0000 0.33078  0.55363  0.80047  Biso   1.000  C
  C53      1.0000 0.41802  0.53313  0.37369  Biso   1.000  C
  C54      1.0000 0.36205  0.58891  0.31671  Biso   1.000  C
  C55      1.0000 0.33422  0.67871  0.29148  Biso   1.000  C
  C56      1.0000 0.33381  0.55226  0.28807  Biso   1.000  C
  C57      1.0000 0.84167  0.55296  0.29128  Biso   1.000  C
  C58      1.0000 0.91453  0.03124  0.87818  Biso   1.000  C
  C59      1.0000 0.85746  0.09012  0.81770  Biso   1.000  C
  C60      1.0000 0.76895  0.11626  0.85455  Biso   1.000  C
  C61      1.0000 0.89522  0.11807  0.72838  Biso   1.000  C
  C62      1.0000 0.91572  0.03083  0.15516  Biso   1.000  C
  C63      1.0000 0.85994  0.08680  0.21214  Biso   1.000  C
  C64      1.0000 0.77013  0.11463  0.23737  Biso   1.000  C
  C65      1.0000 0.89659  0.11503  0.24078  Biso   1.000  C
  C66      1.0000 0.89588  0.60718  0.23757  Biso   1.000  C
  C67      1.0000 0.19370  0.75208  0.87818  Biso   1.000  C
  C68      1.0000 0.25258  0.69500  0.81770  Biso   1.000  C
  C69      1.0000 0.27871  0.60650  0.85455  Biso   1.000  C
  C70      1.0000 0.28052  0.73276  0.72838  Biso   1.000  C
  C71      1.0000 0.19329  0.75326  0.15516  Biso   1.000  C
  C72      1.0000 0.24926  0.69749  0.21214  Biso   1.000  C
  C73      1.0000 0.27708  0.60768  0.23737  Biso   1.000  C
  C74      1.0000 0.27749  0.73413  0.24078  Biso   1.000  C
  C75      1.0000 0.76964  0.73343  0.23757  Biso   1.000  C
  C76      1.0000 0.69677  0.25515  0.65067  Biso   1.000  C
  C77      1.0000 0.75384  0.19627  0.71115  Biso   1.000  C
  C78      1.0000 0.84235  0.17014  0.67430  Biso   1.000  C
  C79      1.0000 0.71609  0.16833  0.80047  Biso   1.000  C
  C80      1.0000 0.69558  0.25556  0.37369  Biso   1.000  C
  C81      1.0000 0.75136  0.19959  0.31671  Biso   1.000  C
  C82      1.0000 0.84117  0.17176  0.29148  Biso   1.000  C
  C83      1.0000 0.71471  0.17136  0.28807  Biso   1.000  C
  C84      1.0000 0.71542  0.67921  0.29128  Biso   1.000  C
  C85      1.0000 0.41590  0.25345  0.65728  Biso   1.000  C
  C86      1.0000 0.35972  0.19727  0.71035  Biso   1.000  C
  C87      1.0000 0.33309  0.17064  0.67330  Biso   1.000  C
  C88      1.0000 0.33068  0.16823  0.80248  Biso   1.000  C
  C89      1.0000 0.69268  0.53023  0.37890  Biso   1.000  C
  C90      1.0000 0.75296  0.59051  0.31681  Biso   1.000  C
  C91      1.0000 0.19540  0.03295  0.87157  Biso   1.000  C
  C92      1.0000 0.25158  0.08912  0.81850  Biso   1.000  C
  C93      1.0000 0.27821  0.11576  0.85555  Biso   1.000  C
  C94      1.0000 0.28062  0.11817  0.72637  Biso   1.000  C
  C95      1.0000 0.91863  0.75617  0.14995  Biso   1.000  C
  C96      1.0000 0.85834  0.69589  0.21204  Biso   1.000  C
  O27      1.0000 0.43772  0.44850  0.69423  Biso   1.000  O
  O28      1.0000 0.44013  0.57487  0.56786  Biso   1.000  O
  O29      1.0000 0.43744  0.44742  0.39902  Biso   1.000  O
  O30      1.0000 0.43964  0.57338  0.39622  Biso   1.000  O
  O31      1.0000 0.73513  0.44712  0.39852  Biso   1.000  O
  O32      1.0000 0.00035  0.01112  0.83462  Biso   1.000  O
  O33      1.0000 0.87398  0.00871  0.96099  Biso   1.000  O
  O34      1.0000 0.00143  0.01140  0.12983  Biso   1.000  O
  O35      1.0000 0.87547  0.00920  0.13263  Biso   1.000  O
  O36      1.0000 0.00174  0.71371  0.13033  Biso   1.000  O
  O37      1.0000 0.17358  0.83789  0.83462  Biso   1.000  O
  O38      1.0000 0.17117  0.71152  0.96099  Biso   1.000  O
  O39      1.0000 0.17386  0.83898  0.12983  Biso   1.000  O
  O40      1.0000 0.17166  0.71301  0.13263  Biso   1.000  O
  O41      1.0000 0.87617  0.83928  0.13033  Biso   1.000  O
  O42      1.0000 0.61095  0.27527  0.69423  Biso   1.000  O
  O43      1.0000 0.73733  0.27768  0.56786  Biso   1.000  O
  O44      1.0000 0.60987  0.27499  0.39902  Biso   1.000  O
  O45      1.0000 0.73583  0.27719  0.39622  Biso   1.000  O
  O46      1.0000 0.60957  0.57268  0.39852  Biso   1.000  O
  O47      1.0000 0.55589  0.39344  0.51428  Biso   1.000  O
  O48      1.0000 0.43913  0.27668  0.69323  Biso   1.000  O
  O49      1.0000 0.43753  0.27508  0.57256  Biso   1.000  O
  O50      1.0000 0.05541  0.89295  0.01457  Biso   1.000  O
  O51      1.0000 0.17217  0.00972  0.83562  Biso   1.000  O
