data_image0
_cell_length_a       18.2789
_cell_length_b       18.2789
_cell_length_c       18.2789
_cell_angle_alpha    60
_cell_angle_beta     60
_cell_angle_gamma    60

_symmetry_space_group_name_H-M    "P 1"
_symmetry_int_tables_number       1

loop_
  _symmetry_equiv_pos_as_xyz
  'x, y, z'

loop_
  _atom_site_label
  _atom_site_occupancy
  _atom_site_fract_x
  _atom_site_fract_y
  _atom_site_fract_z
  _atom_site_thermal_displace_type
  _atom_site_B_iso_or_equiv
  _atom_site_type_symbol
  Zn1      1.0000 0.29348  0.29347  0.11958  Biso   1.000  Zn
  Zn2      1.0000 0.29348  0.29347  0.29347  Biso   1.000  Zn
  Zn3      1.0000 0.11959  0.29347  0.29347  Biso   1.000  Zn
  Zn4      1.0000 0.29348  0.11958  0.29347  Biso   1.000  Zn
  Zn5      1.0000 0.70652  0.70653  0.88042  Biso   1.000  Zn
  Zn6      1.0000 0.70652  0.70653  0.70653  Biso   1.000  Zn
  Zn7      1.0000 0.70652  0.88042  0.70653  Biso   1.000  Zn
  Zn8      1.0000 0.88041  0.70653  0.70653  Biso   1.000  Zn
  H1       1.0000 0.45520  0.45520  0.93520  Biso   1.000  H
  H2       1.0000 0.45520  0.45520  0.15440  Biso   1.000  H
  H3       1.0000 0.93520  0.15440  0.45520  Biso   1.000  H
  H4       1.0000 0.15440  0.93520  0.45520  Biso   1.000  H
  H5       1.0000 0.45520  0.93520  0.15440  Biso   1.000  H
  H6       1.0000 0.45520  0.15440  0.93520  Biso   1.000  H
  H7       1.0000 0.93520  0.45520  0.45520  Biso   1.000  H
  H8       1.0000 0.15440  0.45520  0.45520  Biso   1.000  H
  H9       1.0000 0.45520  0.15440  0.45520  Biso   1.000  H
  H10      1.0000 0.45520  0.93520  0.45520  Biso   1.000  H
  H11      1.0000 0.93520  0.45520  0.15440  Biso   1.000  H
  H12      1.0000 0.15440  0.45520  0.93520  Biso   1.000  H
  H13      1.0000 0.54480  0.54480  0.06480  Biso   1.000  H
  H14      1.0000 0.54480  0.54480  0.84560  Biso   1.000  H
  H15      1.0000 0.84560  0.06480  0.54480  Biso   1.000  H
  H16      1.0000 0.06480  0.84560  0.54480  Biso   1.000  H
  H17      1.0000 0.06480  0.54480  0.84560  Biso   1.000  H
  H18      1.0000 0.84560  0.54480  0.06480  Biso   1.000  H
  H19      1.0000 0.54480  0.06480  0.54480  Biso   1.000  H
  H20      1.0000 0.54480  0.84560  0.54480  Biso   1.000  H
  H21      1.0000 0.84560  0.54480  0.54480  Biso   1.000  H
  H22      1.0000 0.06480  0.54480  0.54480  Biso   1.000  H
  H23      1.0000 0.54480  0.06480  0.84560  Biso   1.000  H
  H24      1.0000 0.54480  0.84560  0.06480  Biso   1.000  H
  C1       1.0000 0.47338  0.47338  0.96214  Biso   1.000  C
  C2       1.0000 0.47338  0.47338  0.09110  Biso   1.000  C
  C3       1.0000 0.96214  0.09110  0.47338  Biso   1.000  C
  C4       1.0000 0.09110  0.96214  0.47338  Biso   1.000  C
  C5       1.0000 0.47338  0.96214  0.09110  Biso   1.000  C
  C6       1.0000 0.47338  0.09110  0.96214  Biso   1.000  C
  C7       1.0000 0.96214  0.47338  0.47338  Biso   1.000  C
  C8       1.0000 0.09110  0.47338  0.47338  Biso   1.000  C
  C9       1.0000 0.47338  0.09110  0.47338  Biso   1.000  C
  C10      1.0000 0.47338  0.96214  0.47338  Biso   1.000  C
  C11      1.0000 0.96214  0.47338  0.09110  Biso   1.000  C
  C12      1.0000 0.09110  0.47338  0.96214  Biso   1.000  C
  C13      1.0000 0.52662  0.52662  0.03786  Biso   1.000  C
  C14      1.0000 0.52662  0.52662  0.90890  Biso   1.000  C
  C15      1.0000 0.90890  0.03786  0.52662  Biso   1.000  C
  C16      1.0000 0.03786  0.90890  0.52662  Biso   1.000  C
  C17      1.0000 0.03786  0.52662  0.90890  Biso   1.000  C
  C18      1.0000 0.90890  0.52662  0.03786  Biso   1.000  C
  C19      1.0000 0.52662  0.03786  0.52662  Biso   1.000  C
  C20      1.0000 0.52662  0.90890  0.52662  Biso   1.000  C
  C21      1.0000 0.90890  0.52662  0.52662  Biso   1.000  C
  C22      1.0000 0.03786  0.52662  0.52662  Biso   1.000  C
  C23      1.0000 0.52662  0.03786  0.90890  Biso   1.000  C
  C24      1.0000 0.52662  0.90890  0.03786  Biso   1.000  C
  C25      1.0000 0.38853  0.38853  0.11147  Biso   1.000  C
  C26      1.0000 0.44615  0.44615  0.05385  Biso   1.000  C
  C27      1.0000 0.11147  0.11147  0.38853  Biso   1.000  C
  C28      1.0000 0.05385  0.05385  0.44615  Biso   1.000  C
  C29      1.0000 0.38853  0.11147  0.11147  Biso   1.000  C
  C30      1.0000 0.44615  0.05385  0.05385  Biso   1.000  C
  C31      1.0000 0.11147  0.38853  0.38853  Biso   1.000  C
  C32      1.0000 0.05385  0.44615  0.44615  Biso   1.000  C
  C33      1.0000 0.38853  0.11147  0.38853  Biso   1.000  C
  C34      1.0000 0.44615  0.05385  0.44615  Biso   1.000  C
  C35      1.0000 0.11147  0.38853  0.11147  Biso   1.000  C
  C36      1.0000 0.05385  0.44615  0.05385  Biso   1.000  C
  C37      1.0000 0.61147  0.61147  0.88853  Biso   1.000  C
  C38      1.0000 0.55385  0.55385  0.94615  Biso   1.000  C
  C39      1.0000 0.88853  0.88853  0.61147  Biso   1.000  C
  C40      1.0000 0.94615  0.94615  0.55385  Biso   1.000  C
  C41      1.0000 0.88853  0.61147  0.88853  Biso   1.000  C
  C42      1.0000 0.94615  0.55385  0.94615  Biso   1.000  C
  C43      1.0000 0.61147  0.88853  0.61147  Biso   1.000  C
  C44      1.0000 0.55385  0.94615  0.55385  Biso   1.000  C
  C45      1.0000 0.88853  0.61147  0.61147  Biso   1.000  C
  C46      1.0000 0.94615  0.55385  0.55385  Biso   1.000  C
  C47      1.0000 0.61147  0.88853  0.88853  Biso   1.000  C
  C48      1.0000 0.55385  0.94615  0.94615  Biso   1.000  C
  O1       1.0000 0.25000  0.25000  0.25000  Biso   1.000  O
  O2       1.0000 0.75000  0.75000  0.75000  Biso   1.000  O
  O3       1.0000 0.36624  0.36624  0.07286  Biso   1.000  O
  O4       1.0000 0.36624  0.36624  0.19466  Biso   1.000  O
  O5       1.0000 0.07286  0.19466  0.36624  Biso   1.000  O
  O6       1.0000 0.19466  0.07286  0.36624  Biso   1.000  O
  O7       1.0000 0.36624  0.07286  0.19466  Biso   1.000  O
  O8       1.0000 0.36624  0.19466  0.07286  Biso   1.000  O
  O9       1.0000 0.07286  0.36624  0.36624  Biso   1.000  O
  O10      1.0000 0.19466  0.36624  0.36624  Biso   1.000  O
  O11      1.0000 0.36624  0.19466  0.36624  Biso   1.000  O
  O12      1.0000 0.36624  0.07286  0.36624  Biso   1.000  O
  O13      1.0000 0.07286  0.36624  0.19466  Biso   1.000  O
  O14      1.0000 0.19466  0.36624  0.07286  Biso   1.000  O
  O15      1.0000 0.63376  0.63376  0.92714  Biso   1.000  O
  O16      1.0000 0.63376  0.63376  0.80534  Biso   1.000  O
  O17      1.0000 0.80534  0.92714  0.63376  Biso   1.000  O
  O18      1.0000 0.92714  0.80534  0.63376  Biso   1.000  O
  O19      1.0000 0.92714  0.63376  0.80534  Biso   1.000  O
  O20      1.0000 0.80534  0.63376  0.92714  Biso   1.000  O
  O21      1.0000 0.63376  0.92714  0.63376  Biso   1.000  O
  O22      1.0000 0.63376  0.80534  0.63376  Biso   1.000  O
  O23      1.0000 0.80534  0.63376  0.63376  Biso   1.000  O
  O24      1.0000 0.92714  0.63376  0.63376  Biso   1.000  O
  O25      1.0000 0.63376  0.92714  0.80534  Biso   1.000  O
  O26      1.0000 0.63376  0.80534  0.92714  Biso   1.000  O
  Zn9      1.0000 0.50251  0.52004  0.33502  Biso   1.000  Zn
  Zn10     1.0000 0.50251  0.52004  0.50888  Biso   1.000  Zn
  Zn11     1.0000 0.32864  0.52004  0.50888  Biso   1.000  Zn
  Zn12     1.0000 0.50251  0.34618  0.50888  Biso   1.000  Zn
  Zn13     1.0000 0.91420  0.93171  0.09442  Biso   1.000  Zn
  Zn14     1.0000 0.91420  0.93171  0.92055  Biso   1.000  Zn
  Zn15     1.0000 0.91420  0.10558  0.92055  Biso   1.000  Zn
  Zn16     1.0000 0.08806  0.93171  0.92055  Biso   1.000  Zn
  H25      1.0000 0.66417  0.68170  0.15020  Biso   1.000  H
  H26      1.0000 0.66417  0.68170  0.36759  Biso   1.000  H
  H27      1.0000 0.14384  0.37874  0.67054  Biso   1.000  H
  H28      1.0000 0.36122  0.16136  0.67054  Biso   1.000  H
  H29      1.0000 0.66417  0.16136  0.36759  Biso   1.000  H
  H30      1.0000 0.66417  0.37874  0.15020  Biso   1.000  H
  H31      1.0000 0.14384  0.68170  0.67054  Biso   1.000  H
  H32      1.0000 0.36122  0.68170  0.67054  Biso   1.000  H
  H33      1.0000 0.66417  0.37874  0.67054  Biso   1.000  H
  H34      1.0000 0.66417  0.16136  0.67054  Biso   1.000  H
  H35      1.0000 0.14384  0.68170  0.36759  Biso   1.000  H
  H36      1.0000 0.36122  0.68170  0.15020  Biso   1.000  H
  H37      1.0000 0.75253  0.77005  0.27923  Biso   1.000  H
  H38      1.0000 0.75253  0.77005  0.06185  Biso   1.000  H
  H39      1.0000 0.05548  0.29039  0.75889  Biso   1.000  H
  H40      1.0000 0.27287  0.07301  0.75889  Biso   1.000  H
  H41      1.0000 0.27287  0.77005  0.06185  Biso   1.000  H
  H42      1.0000 0.05548  0.77005  0.27923  Biso   1.000  H
  H43      1.0000 0.75253  0.29039  0.75889  Biso   1.000  H
  H44      1.0000 0.75253  0.07301  0.75889  Biso   1.000  H
  H45      1.0000 0.05548  0.77005  0.75889  Biso   1.000  H
  H46      1.0000 0.27287  0.77005  0.75889  Biso   1.000  H
  H47      1.0000 0.75253  0.29039  0.06185  Biso   1.000  H
  H48      1.0000 0.75253  0.07301  0.27923  Biso   1.000  H
  C49      1.0000 0.68183  0.69935  0.17698  Biso   1.000  C
  C50      1.0000 0.68183  0.69935  0.30550  Biso   1.000  C
  C51      1.0000 0.17062  0.31666  0.68819  Biso   1.000  C
  C52      1.0000 0.29913  0.18814  0.68819  Biso   1.000  C
  C53      1.0000 0.68183  0.18814  0.30550  Biso   1.000  C
  C54      1.0000 0.68183  0.31666  0.17698  Biso   1.000  C
  C55      1.0000 0.17062  0.69935  0.68819  Biso   1.000  C
  C56      1.0000 0.29913  0.69935  0.68819  Biso   1.000  C
  C57      1.0000 0.68183  0.31666  0.68819  Biso   1.000  C
  C58      1.0000 0.68183  0.18814  0.68819  Biso   1.000  C
  C59      1.0000 0.17062  0.69935  0.30550  Biso   1.000  C
  C60      1.0000 0.29913  0.69935  0.17698  Biso   1.000  C
  C61      1.0000 0.73488  0.75240  0.25245  Biso   1.000  C
  C62      1.0000 0.73488  0.75240  0.12393  Biso   1.000  C
  C63      1.0000 0.11757  0.26361  0.74124  Biso   1.000  C
  C64      1.0000 0.24608  0.13509  0.74124  Biso   1.000  C
  C65      1.0000 0.24608  0.75240  0.12393  Biso   1.000  C
  C66      1.0000 0.11757  0.75240  0.25245  Biso   1.000  C
  C67      1.0000 0.73488  0.26361  0.74124  Biso   1.000  C
  C68      1.0000 0.73488  0.13509  0.74124  Biso   1.000  C
  C69      1.0000 0.11757  0.75240  0.74124  Biso   1.000  C
  C70      1.0000 0.24608  0.75240  0.74124  Biso   1.000  C
  C71      1.0000 0.73488  0.26361  0.12393  Biso   1.000  C
  C72      1.0000 0.73488  0.13509  0.25245  Biso   1.000  C
  C73      1.0000 0.59716  0.61469  0.32730  Biso   1.000  C
  C74      1.0000 0.65460  0.67213  0.26986  Biso   1.000  C
  C75      1.0000 0.32093  0.33846  0.60353  Biso   1.000  C
  C76      1.0000 0.26349  0.28102  0.66097  Biso   1.000  C
  C77      1.0000 0.59716  0.33846  0.32730  Biso   1.000  C
  C78      1.0000 0.65460  0.28102  0.26986  Biso   1.000  C
  C79      1.0000 0.32093  0.61469  0.60353  Biso   1.000  C
  C80      1.0000 0.26349  0.67213  0.66097  Biso   1.000  C
  C81      1.0000 0.59716  0.33846  0.60353  Biso   1.000  C
  C82      1.0000 0.65460  0.28102  0.66097  Biso   1.000  C
  C83      1.0000 0.32093  0.61469  0.32730  Biso   1.000  C
  C84      1.0000 0.26349  0.67213  0.26986  Biso   1.000  C
  C85      1.0000 0.81954  0.83707  0.10213  Biso   1.000  C
  C86      1.0000 0.76210  0.77963  0.15957  Biso   1.000  C
  C87      1.0000 0.09577  0.11329  0.82591  Biso   1.000  C
  C88      1.0000 0.15321  0.17073  0.76847  Biso   1.000  C
  C89      1.0000 0.09577  0.83707  0.10213  Biso   1.000  C
  C90      1.0000 0.15321  0.77963  0.15957  Biso   1.000  C
  C91      1.0000 0.81954  0.11329  0.82591  Biso   1.000  C
  C92      1.0000 0.76210  0.17073  0.76847  Biso   1.000  C
  C93      1.0000 0.09577  0.83706  0.82591  Biso   1.000  C
  C94      1.0000 0.15321  0.77963  0.76847  Biso   1.000  C
  C95      1.0000 0.81954  0.11329  0.10213  Biso   1.000  C
  C96      1.0000 0.76210  0.17073  0.15957  Biso   1.000  C
  O27      1.0000 0.45905  0.47657  0.46541  Biso   1.000  O
  O28      1.0000 0.95765  0.97518  0.96402  Biso   1.000  O
  O29      1.0000 0.57482  0.59235  0.28912  Biso   1.000  O
  O30      1.0000 0.57482  0.59235  0.41015  Biso   1.000  O
  O31      1.0000 0.28276  0.42131  0.58119  Biso   1.000  O
  O32      1.0000 0.40378  0.30028  0.58119  Biso   1.000  O
  O33      1.0000 0.57482  0.30028  0.41015  Biso   1.000  O
  O34      1.0000 0.57482  0.42131  0.28912  Biso   1.000  O
  O35      1.0000 0.28276  0.59235  0.58119  Biso   1.000  O
  O36      1.0000 0.40378  0.59235  0.58119  Biso   1.000  O
  O37      1.0000 0.57482  0.42131  0.58119  Biso   1.000  O
  O38      1.0000 0.57482  0.30028  0.58119  Biso   1.000  O
  O39      1.0000 0.28276  0.59235  0.41015  Biso   1.000  O
  O40      1.0000 0.40378  0.59235  0.28912  Biso   1.000  O
  O41      1.0000 0.84188  0.85940  0.14031  Biso   1.000  O
  O42      1.0000 0.84188  0.85940  0.01929  Biso   1.000  O
  O43      1.0000 0.01292  0.15147  0.84824  Biso   1.000  O
  O44      1.0000 0.13394  0.03045  0.84824  Biso   1.000  O
  O45      1.0000 0.13394  0.85940  0.01929  Biso   1.000  O
  O46      1.0000 0.01292  0.85940  0.14031  Biso   1.000  O
  O47      1.0000 0.84188  0.15147  0.84824  Biso   1.000  O
  O48      1.0000 0.84188  0.03045  0.84824  Biso   1.000  O
  O49      1.0000 0.01292  0.85940  0.84824  Biso   1.000  O
  O50      1.0000 0.13394  0.85940  0.84824  Biso   1.000  O
  O51      1.0000 0.84188  0.15147  0.01929  Biso   1.000  O
