data_image0
_cell_length_a       18.255
_cell_length_b       18.255
_cell_length_c       18.255
_cell_angle_alpha    60
_cell_angle_beta     60
_cell_angle_gamma    60

_symmetry_space_group_name_H-M    "P 1"
_symmetry_int_tables_number       1

loop_
  _symmetry_equiv_pos_as_xyz
  'x, y, z'

loop_
  _atom_site_label
  _atom_site_occupancy
  _atom_site_fract_x
  _atom_site_fract_y
  _atom_site_fract_z
  _atom_site_thermal_displace_type
  _atom_site_B_iso_or_equiv
  _atom_site_type_symbol
  C1       1.0000 0.29354  0.29354  0.11938  Biso   1.000  C
  C2       1.0000 0.29354  0.29354  0.29354  Biso   1.000  C
  C3       1.0000 0.11938  0.29354  0.29354  Biso   1.000  C
  C4       1.0000 0.29354  0.11938  0.29354  Biso   1.000  C
  C5       1.0000 0.70646  0.70646  0.88062  Biso   1.000  C
  C6       1.0000 0.70646  0.70646  0.70646  Biso   1.000  C
  C7       1.0000 0.70646  0.88062  0.70646  Biso   1.000  C
  C8       1.0000 0.88062  0.70646  0.70646  Biso   1.000  C
  C9       1.0000 0.45570  0.45570  0.93630  Biso   1.000  C
  C10      1.0000 0.45570  0.45570  0.15230  Biso   1.000  C
  C11      1.0000 0.93630  0.15230  0.45570  Biso   1.000  C
  C12      1.0000 0.15230  0.93630  0.45570  Biso   1.000  C
  C13      1.0000 0.45570  0.93630  0.15230  Biso   1.000  C
  C14      1.0000 0.45570  0.15230  0.93630  Biso   1.000  C
  C15      1.0000 0.93630  0.45570  0.45570  Biso   1.000  C
  C16      1.0000 0.15230  0.45570  0.45570  Biso   1.000  C
  C17      1.0000 0.45570  0.15230  0.45570  Biso   1.000  C
  C18      1.0000 0.45570  0.93630  0.45570  Biso   1.000  C
  C19      1.0000 0.93630  0.45570  0.15230  Biso   1.000  C
  C20      1.0000 0.15230  0.45570  0.93630  Biso   1.000  C
  C21      1.0000 0.54430  0.54430  0.06370  Biso   1.000  C
  C22      1.0000 0.54430  0.54430  0.84770  Biso   1.000  C
  C23      1.0000 0.84770  0.06370  0.54430  Biso   1.000  C
  C24      1.0000 0.06370  0.84770  0.54430  Biso   1.000  C
  C25      1.0000 0.06370  0.54430  0.84770  Biso   1.000  C
  C26      1.0000 0.84770  0.54430  0.06370  Biso   1.000  C
  C27      1.0000 0.54430  0.06370  0.54430  Biso   1.000  C
  C28      1.0000 0.54430  0.84770  0.54430  Biso   1.000  C
  C29      1.0000 0.84770  0.54430  0.54430  Biso   1.000  C
  C30      1.0000 0.06370  0.54430  0.54430  Biso   1.000  C
  C31      1.0000 0.54430  0.06370  0.84770  Biso   1.000  C
  C32      1.0000 0.54430  0.84770  0.06370  Biso   1.000  C
  C33      1.0000 0.47332  0.47332  0.96310  Biso   1.000  C
  C34      1.0000 0.47332  0.47332  0.09026  Biso   1.000  C
  C35      1.0000 0.96310  0.09026  0.47332  Biso   1.000  C
  C36      1.0000 0.09026  0.96310  0.47332  Biso   1.000  C
  C37      1.0000 0.47332  0.96310  0.09026  Biso   1.000  C
  C38      1.0000 0.47332  0.09026  0.96310  Biso   1.000  C
  C39      1.0000 0.96310  0.47332  0.47332  Biso   1.000  C
  C40      1.0000 0.09026  0.47332  0.47332  Biso   1.000  C
  C41      1.0000 0.47332  0.09026  0.47332  Biso   1.000  C
  C42      1.0000 0.47332  0.96310  0.47332  Biso   1.000  C
  C43      1.0000 0.96310  0.47332  0.09026  Biso   1.000  C
  C44      1.0000 0.09026  0.47332  0.96310  Biso   1.000  C
  C45      1.0000 0.52668  0.52668  0.03690  Biso   1.000  C
  C46      1.0000 0.52668  0.52668  0.90974  Biso   1.000  C
  C47      1.0000 0.90974  0.03690  0.52668  Biso   1.000  C
  C48      1.0000 0.03690  0.90974  0.52668  Biso   1.000  C
  C49      1.0000 0.03690  0.52668  0.90974  Biso   1.000  C
  C50      1.0000 0.90974  0.52668  0.03690  Biso   1.000  C
  C51      1.0000 0.52668  0.03690  0.52668  Biso   1.000  C
  C52      1.0000 0.52668  0.90974  0.52668  Biso   1.000  C
  C53      1.0000 0.90974  0.52668  0.52668  Biso   1.000  C
  C54      1.0000 0.03690  0.52668  0.52668  Biso   1.000  C
  C55      1.0000 0.52668  0.03690  0.90974  Biso   1.000  C
  C56      1.0000 0.52668  0.90974  0.03690  Biso   1.000  C
  C57      1.0000 0.38870  0.38870  0.11130  Biso   1.000  C
  C58      1.0000 0.44580  0.44580  0.05420  Biso   1.000  C
  C59      1.0000 0.11130  0.11130  0.38870  Biso   1.000  C
  C60      1.0000 0.05420  0.05420  0.44580  Biso   1.000  C
  C61      1.0000 0.38870  0.11130  0.11130  Biso   1.000  C
  C62      1.0000 0.44580  0.05420  0.05420  Biso   1.000  C
  C63      1.0000 0.11130  0.38870  0.38870  Biso   1.000  C
  C64      1.0000 0.05420  0.44580  0.44580  Biso   1.000  C
  C65      1.0000 0.38870  0.11130  0.38870  Biso   1.000  C
  C66      1.0000 0.44580  0.05420  0.44580  Biso   1.000  C
  C67      1.0000 0.11130  0.38870  0.11130  Biso   1.000  C
  C68      1.0000 0.05420  0.44580  0.05420  Biso   1.000  C
  C69      1.0000 0.61130  0.61130  0.88870  Biso   1.000  C
  C70      1.0000 0.55420  0.55420  0.94580  Biso   1.000  C
  C71      1.0000 0.88870  0.88870  0.61130  Biso   1.000  C
  C72      1.0000 0.94580  0.94580  0.55420  Biso   1.000  C
  C73      1.0000 0.88870  0.61130  0.88870  Biso   1.000  C
  C74      1.0000 0.94580  0.55420  0.94580  Biso   1.000  C
  C75      1.0000 0.61130  0.88870  0.61130  Biso   1.000  C
  C76      1.0000 0.55420  0.94580  0.55420  Biso   1.000  C
  C77      1.0000 0.88870  0.61130  0.61130  Biso   1.000  C
  C78      1.0000 0.94580  0.55420  0.55420  Biso   1.000  C
  C79      1.0000 0.61130  0.88870  0.88870  Biso   1.000  C
  C80      1.0000 0.55420  0.94580  0.94580  Biso   1.000  C
  C81      1.0000 0.25000  0.25000  0.25000  Biso   1.000  C
  C82      1.0000 0.75000  0.75000  0.75000  Biso   1.000  C
  C83      1.0000 0.36613  0.36613  0.07303  Biso   1.000  C
  C84      1.0000 0.36613  0.36613  0.19471  Biso   1.000  C
  C85      1.0000 0.07303  0.19471  0.36613  Biso   1.000  C
  C86      1.0000 0.19471  0.07303  0.36613  Biso   1.000  C
  C87      1.0000 0.36613  0.07303  0.19471  Biso   1.000  C
  C88      1.0000 0.36613  0.19471  0.07303  Biso   1.000  C
  C89      1.0000 0.07303  0.36613  0.36613  Biso   1.000  C
  C90      1.0000 0.19471  0.36613  0.36613  Biso   1.000  C
  C91      1.0000 0.36613  0.19471  0.36613  Biso   1.000  C
  C92      1.0000 0.36613  0.07303  0.36613  Biso   1.000  C
  C93      1.0000 0.07303  0.36613  0.19471  Biso   1.000  C
  C94      1.0000 0.19471  0.36613  0.07303  Biso   1.000  C
  C95      1.0000 0.63387  0.63387  0.92697  Biso   1.000  C
  C96      1.0000 0.63387  0.63387  0.80529  Biso   1.000  C
  C97      1.0000 0.80529  0.92697  0.63387  Biso   1.000  C
  C98      1.0000 0.92697  0.80529  0.63387  Biso   1.000  C
  C99      1.0000 0.92697  0.63387  0.80529  Biso   1.000  C
  C100     1.0000 0.80529  0.63387  0.92697  Biso   1.000  C
  C101     1.0000 0.63387  0.92697  0.63387  Biso   1.000  C
  C102     1.0000 0.63387  0.80529  0.63387  Biso   1.000  C
  C103     1.0000 0.80529  0.63387  0.63387  Biso   1.000  C
  C104     1.0000 0.92697  0.63387  0.63387  Biso   1.000  C
  C105     1.0000 0.63387  0.92697  0.80529  Biso   1.000  C
  C106     1.0000 0.63387  0.80529  0.92697  Biso   1.000  C
  O1       1.0000 0.95519  0.10414  0.06709  Biso   1.000  O
  O2       1.0000 0.36785  0.69148  0.47978  Biso   1.000  O
  O3       1.0000 0.36785  0.51715  0.47978  Biso   1.000  O
  O4       1.0000 0.95519  0.92981  0.06709  Biso   1.000  O
  O5       1.0000 0.95493  0.10434  0.89262  Biso   1.000  O
  O6       1.0000 0.78051  0.10421  0.06730  Biso   1.000  O
  O7       1.0000 0.36810  0.51695  0.65425  Biso   1.000  O
  O8       1.0000 0.54253  0.51708  0.47957  Biso   1.000  O
  O9       1.0000 0.11692  0.74677  0.92572  Biso   1.000  O
  O10      1.0000 0.11144  0.96301  0.71184  Biso   1.000  O
  O11      1.0000 0.81609  0.74875  0.22818  Biso   1.000  O
  O12      1.0000 0.59485  0.96418  0.23348  Biso   1.000  O
  O13      1.0000 0.11863  0.96358  0.22638  Biso   1.000  O
  O14      1.0000 0.20612  0.35445  0.62115  Biso   1.000  O
  O15      1.0000 0.21160  0.35134  0.83503  Biso   1.000  O
  O16      1.0000 0.50695  0.35806  0.31868  Biso   1.000  O
  O17      1.0000 0.72819  0.35756  0.31338  Biso   1.000  O
  O18      1.0000 0.20440  0.87364  0.32048  Biso   1.000  O
  O19      1.0000 0.20612  0.87453  0.62115  Biso   1.000  O
  O20      1.0000 0.21160  0.65829  0.83503  Biso   1.000  O
  O21      1.0000 0.50695  0.87254  0.31868  Biso   1.000  O
  O22      1.0000 0.72819  0.65711  0.31338  Biso   1.000  O
  O23      1.0000 0.20441  0.65771  0.32048  Biso   1.000  O
  O24      1.0000 0.11692  0.26684  0.92572  Biso   1.000  O
  O25      1.0000 0.11144  0.26996  0.71184  Biso   1.000  O
  O26      1.0000 0.81609  0.26323  0.22818  Biso   1.000  O
  O27      1.0000 0.59485  0.26373  0.23348  Biso   1.000  O
  O28      1.0000 0.11864  0.74765  0.22638  Biso   1.000  O
  O29      1.0000 0.59874  0.26554  0.92642  Biso   1.000  O
  O30      1.0000 0.81179  0.26826  0.70794  Biso   1.000  O
  O31      1.0000 0.72430  0.35575  0.62045  Biso   1.000  O
  O32      1.0000 0.51125  0.35304  0.83893  Biso   1.000  O
  O33      1.0000 0.05026  0.92010  0.88702  Biso   1.000  O
  O34      1.0000 0.10884  0.86312  0.82663  Biso   1.000  O
  O35      1.0000 0.13582  0.77326  0.86342  Biso   1.000  O
  O36      1.0000 0.13244  0.90081  0.73744  Biso   1.000  O
  O37      1.0000 0.77292  0.92129  0.16359  Biso   1.000  O
  O38      1.0000 0.71583  0.86560  0.22048  Biso   1.000  O
  O39      1.0000 0.75400  0.77444  0.24568  Biso   1.000  O
  O40      1.0000 0.62245  0.90219  0.24908  Biso   1.000  O
  O41      1.0000 0.13493  0.90149  0.24588  Biso   1.000  O
  O42      1.0000 0.27278  0.42243  0.65985  Biso   1.000  O
  O43      1.0000 0.21419  0.36364  0.72024  Biso   1.000  O
  O44      1.0000 0.18723  0.33755  0.68344  Biso   1.000  O
  O45      1.0000 0.19060  0.33574  0.80943  Biso   1.000  O
  O46      1.0000 0.55012  0.42285  0.38328  Biso   1.000  O
  O47      1.0000 0.60721  0.36696  0.32638  Biso   1.000  O
  O48      1.0000 0.56904  0.33917  0.30118  Biso   1.000  O
  O49      1.0000 0.70059  0.33877  0.29779  Biso   1.000  O
  O50      1.0000 0.18810  0.84735  0.30098  Biso   1.000  O
  O51      1.0000 0.27278  0.70119  0.65985  Biso   1.000  O
  O52      1.0000 0.21420  0.75817  0.72024  Biso   1.000  O
  O53      1.0000 0.18722  0.84803  0.68344  Biso   1.000  O
  O54      1.0000 0.19060  0.72048  0.80943  Biso   1.000  O
  O55      1.0000 0.55012  0.70000  0.38328  Biso   1.000  O
  O56      1.0000 0.60721  0.75570  0.32638  Biso   1.000  O
  O57      1.0000 0.56904  0.84685  0.30118  Biso   1.000  O
  O58      1.0000 0.70059  0.71910  0.29779  Biso   1.000  O
  O59      1.0000 0.18811  0.71980  0.30098  Biso   1.000  O
  O60      1.0000 0.05026  0.19886  0.88702  Biso   1.000  O
  O61      1.0000 0.10885  0.25765  0.82663  Biso   1.000  O
  O62      1.0000 0.13581  0.28375  0.86342  Biso   1.000  O
  O63      1.0000 0.13244  0.28555  0.73744  Biso   1.000  O
  O64      1.0000 0.77292  0.19844  0.16359  Biso   1.000  O
  O65      1.0000 0.71583  0.25433  0.22048  Biso   1.000  O
  O66      1.0000 0.75400  0.28213  0.24568  Biso   1.000  O
  O67      1.0000 0.62245  0.28253  0.24908  Biso   1.000  O
  O68      1.0000 0.13493  0.77394  0.24588  Biso   1.000  O
  O69      1.0000 0.77471  0.20056  0.88042  Biso   1.000  O
  O70      1.0000 0.71551  0.25665  0.82743  Biso   1.000  O
  O71      1.0000 0.62533  0.28325  0.86442  Biso   1.000  O
  O72      1.0000 0.74950  0.28565  0.73544  Biso   1.000  O
  O73      1.0000 0.04947  0.92419  0.15839  Biso   1.000  O
  O74      1.0000 0.10786  0.86400  0.22038  Biso   1.000  O
  O75      1.0000 0.54833  0.42073  0.66644  Biso   1.000  O
  O76      1.0000 0.60753  0.36464  0.71944  Biso   1.000  O
  O77      1.0000 0.69771  0.33805  0.68244  Biso   1.000  O
  O78      1.0000 0.57354  0.33564  0.81143  Biso   1.000  O
  O79      1.0000 0.27357  0.69710  0.38848  Biso   1.000  O
  O80      1.0000 0.21518  0.75730  0.32648  Biso   1.000  O
  O81      1.0000 0.02816  0.00579  0.84353  Biso   1.000  O
  O82      1.0000 0.03056  0.87961  0.96971  Biso   1.000  O
  O83      1.0000 0.73202  0.00688  0.13829  Biso   1.000  O
  O84      1.0000 0.85720  0.88110  0.14109  Biso   1.000  O
  O85      1.0000 0.02847  0.00718  0.13879  Biso   1.000  O
  O86      1.0000 0.29488  0.44253  0.70334  Biso   1.000  O
  O87      1.0000 0.29247  0.44493  0.57715  Biso   1.000  O
  O88      1.0000 0.59101  0.44224  0.40857  Biso   1.000  O
  O89      1.0000 0.46584  0.44444  0.40577  Biso   1.000  O
  O90      1.0000 0.29457  0.73949  0.40807  Biso   1.000  O
  O91      1.0000 0.29488  0.61550  0.70334  Biso   1.000  O
  O92      1.0000 0.29247  0.74168  0.57715  Biso   1.000  O
  O93      1.0000 0.59102  0.61441  0.40857  Biso   1.000  O
  O94      1.0000 0.46584  0.74019  0.40577  Biso   1.000  O
  O95      1.0000 0.29457  0.61411  0.40807  Biso   1.000  O
  O96      1.0000 0.02816  0.17876  0.84353  Biso   1.000  O
  O97      1.0000 0.03057  0.17636  0.96971  Biso   1.000  O
  O98      1.0000 0.73202  0.17905  0.13829  Biso   1.000  O
  O99      1.0000 0.85720  0.17685  0.14109  Biso   1.000  O
  O100     1.0000 0.02847  0.88180  0.13879  Biso   1.000  O
  O101     1.0000 0.91149  0.06077  0.02321  Biso   1.000  O
  O102     1.0000 0.85699  0.17736  0.84453  Biso   1.000  O
  O103     1.0000 0.73332  0.17896  0.96501  Biso   1.000  O
  O104     1.0000 0.41155  0.56052  0.52366  Biso   1.000  O
  O105     1.0000 0.46605  0.44393  0.70234  Biso   1.000  O
