data_image0
_cell_length_a       18.2507
_cell_length_b       18.2507
_cell_length_c       18.2507
_cell_angle_alpha    60
_cell_angle_beta     60
_cell_angle_gamma    60

_symmetry_space_group_name_H-M    "P 1"
_symmetry_int_tables_number       1

loop_
  _symmetry_equiv_pos_as_xyz
  'x, y, z'

loop_
  _atom_site_label
  _atom_site_occupancy
  _atom_site_fract_x
  _atom_site_fract_y
  _atom_site_fract_z
  _atom_site_thermal_displace_type
  _atom_site_B_iso_or_equiv
  _atom_site_type_symbol
  C1       1.0000 0.29354  0.29353  0.11940  Biso   1.000  C
  C2       1.0000 0.29354  0.29353  0.29353  Biso   1.000  C
  C3       1.0000 0.11941  0.29353  0.29353  Biso   1.000  C
  C4       1.0000 0.29354  0.11940  0.29353  Biso   1.000  C
  C5       1.0000 0.70646  0.70647  0.88060  Biso   1.000  C
  C6       1.0000 0.70646  0.70647  0.70647  Biso   1.000  C
  C7       1.0000 0.70646  0.88060  0.70647  Biso   1.000  C
  C8       1.0000 0.88059  0.70647  0.70647  Biso   1.000  C
  C9       1.0000 0.45580  0.45580  0.93620  Biso   1.000  C
  C10      1.0000 0.45580  0.45580  0.15220  Biso   1.000  C
  C11      1.0000 0.93620  0.15220  0.45580  Biso   1.000  C
  C12      1.0000 0.15220  0.93620  0.45580  Biso   1.000  C
  C13      1.0000 0.45580  0.93620  0.15220  Biso   1.000  C
  C14      1.0000 0.45580  0.15220  0.93620  Biso   1.000  C
  C15      1.0000 0.93620  0.45580  0.45580  Biso   1.000  C
  C16      1.0000 0.15220  0.45580  0.45580  Biso   1.000  C
  C17      1.0000 0.45580  0.15220  0.45580  Biso   1.000  C
  C18      1.0000 0.45580  0.93620  0.45580  Biso   1.000  C
  C19      1.0000 0.93620  0.45580  0.15220  Biso   1.000  C
  C20      1.0000 0.15220  0.45580  0.93620  Biso   1.000  C
  C21      1.0000 0.54420  0.54420  0.06380  Biso   1.000  C
  C22      1.0000 0.54420  0.54420  0.84780  Biso   1.000  C
  C23      1.0000 0.84780  0.06380  0.54420  Biso   1.000  C
  C24      1.0000 0.06380  0.84780  0.54420  Biso   1.000  C
  C25      1.0000 0.06380  0.54420  0.84780  Biso   1.000  C
  C26      1.0000 0.84780  0.54420  0.06380  Biso   1.000  C
  C27      1.0000 0.54420  0.06380  0.54420  Biso   1.000  C
  C28      1.0000 0.54420  0.84780  0.54420  Biso   1.000  C
  C29      1.0000 0.84780  0.54420  0.54420  Biso   1.000  C
  C30      1.0000 0.06380  0.54420  0.54420  Biso   1.000  C
  C31      1.0000 0.54420  0.06380  0.84780  Biso   1.000  C
  C32      1.0000 0.54420  0.84780  0.06380  Biso   1.000  C
  C33      1.0000 0.47349  0.47349  0.96297  Biso   1.000  C
  C34      1.0000 0.47349  0.47349  0.09005  Biso   1.000  C
  C35      1.0000 0.96297  0.09005  0.47349  Biso   1.000  C
  C36      1.0000 0.09005  0.96297  0.47349  Biso   1.000  C
  C37      1.0000 0.47349  0.96297  0.09005  Biso   1.000  C
  C38      1.0000 0.47349  0.09005  0.96297  Biso   1.000  C
  C39      1.0000 0.96297  0.47349  0.47349  Biso   1.000  C
  C40      1.0000 0.09005  0.47349  0.47349  Biso   1.000  C
  C41      1.0000 0.47349  0.09005  0.47349  Biso   1.000  C
  C42      1.0000 0.47349  0.96297  0.47349  Biso   1.000  C
  C43      1.0000 0.96297  0.47349  0.09005  Biso   1.000  C
  C44      1.0000 0.09005  0.47349  0.96297  Biso   1.000  C
  C45      1.0000 0.52651  0.52651  0.03703  Biso   1.000  C
  C46      1.0000 0.52651  0.52651  0.90995  Biso   1.000  C
  C47      1.0000 0.90995  0.03703  0.52651  Biso   1.000  C
  C48      1.0000 0.03703  0.90995  0.52651  Biso   1.000  C
  C49      1.0000 0.03703  0.52651  0.90995  Biso   1.000  C
  C50      1.0000 0.90995  0.52651  0.03703  Biso   1.000  C
  C51      1.0000 0.52651  0.03703  0.52651  Biso   1.000  C
  C52      1.0000 0.52651  0.90995  0.52651  Biso   1.000  C
  C53      1.0000 0.90995  0.52651  0.52651  Biso   1.000  C
  C54      1.0000 0.03703  0.52651  0.52651  Biso   1.000  C
  C55      1.0000 0.52651  0.03703  0.90995  Biso   1.000  C
  C56      1.0000 0.52651  0.90995  0.03703  Biso   1.000  C
  C57      1.0000 0.38859  0.38859  0.11141  Biso   1.000  C
  C58      1.0000 0.44630  0.44630  0.05370  Biso   1.000  C
  C59      1.0000 0.11141  0.11141  0.38859  Biso   1.000  C
  C60      1.0000 0.05370  0.05370  0.44630  Biso   1.000  C
  C61      1.0000 0.38859  0.11141  0.11141  Biso   1.000  C
  C62      1.0000 0.44630  0.05370  0.05370  Biso   1.000  C
  C63      1.0000 0.11141  0.38859  0.38859  Biso   1.000  C
  C64      1.0000 0.05370  0.44630  0.44630  Biso   1.000  C
  C65      1.0000 0.38859  0.11141  0.38859  Biso   1.000  C
  C66      1.0000 0.44630  0.05370  0.44630  Biso   1.000  C
  C67      1.0000 0.11141  0.38859  0.11141  Biso   1.000  C
  C68      1.0000 0.05370  0.44630  0.05370  Biso   1.000  C
  C69      1.0000 0.61141  0.61141  0.88859  Biso   1.000  C
  C70      1.0000 0.55370  0.55370  0.94630  Biso   1.000  C
  C71      1.0000 0.88859  0.88859  0.61141  Biso   1.000  C
  C72      1.0000 0.94630  0.94630  0.55370  Biso   1.000  C
  C73      1.0000 0.88859  0.61141  0.88859  Biso   1.000  C
  C74      1.0000 0.94630  0.55370  0.94630  Biso   1.000  C
  C75      1.0000 0.61141  0.88859  0.61141  Biso   1.000  C
  C76      1.0000 0.55370  0.94630  0.55370  Biso   1.000  C
  C77      1.0000 0.88859  0.61141  0.61141  Biso   1.000  C
  C78      1.0000 0.94630  0.55370  0.55370  Biso   1.000  C
  C79      1.0000 0.61141  0.88859  0.88859  Biso   1.000  C
  C80      1.0000 0.55370  0.94630  0.94630  Biso   1.000  C
  C81      1.0000 0.25000  0.25000  0.25000  Biso   1.000  C
  C82      1.0000 0.75000  0.75000  0.75000  Biso   1.000  C
  C83      1.0000 0.36605  0.36605  0.07321  Biso   1.000  C
  C84      1.0000 0.36605  0.36605  0.19469  Biso   1.000  C
  C85      1.0000 0.07321  0.19469  0.36605  Biso   1.000  C
  C86      1.0000 0.19469  0.07321  0.36605  Biso   1.000  C
  C87      1.0000 0.36605  0.07321  0.19469  Biso   1.000  C
  C88      1.0000 0.36605  0.19469  0.07321  Biso   1.000  C
  C89      1.0000 0.07321  0.36605  0.36605  Biso   1.000  C
  C90      1.0000 0.19469  0.36605  0.36605  Biso   1.000  C
  C91      1.0000 0.36605  0.19469  0.36605  Biso   1.000  C
  C92      1.0000 0.36605  0.07321  0.36605  Biso   1.000  C
  C93      1.0000 0.07321  0.36605  0.19469  Biso   1.000  C
  C94      1.0000 0.19469  0.36605  0.07321  Biso   1.000  C
  C95      1.0000 0.63395  0.63395  0.92679  Biso   1.000  C
  C96      1.0000 0.63395  0.63395  0.80531  Biso   1.000  C
  C97      1.0000 0.80531  0.92679  0.63395  Biso   1.000  C
  C98      1.0000 0.92679  0.80531  0.63395  Biso   1.000  C
  C99      1.0000 0.92679  0.63395  0.80531  Biso   1.000  C
  C100     1.0000 0.80531  0.63395  0.92679  Biso   1.000  C
  C101     1.0000 0.63395  0.92679  0.63395  Biso   1.000  C
  C102     1.0000 0.63395  0.80531  0.63395  Biso   1.000  C
  C103     1.0000 0.80531  0.63395  0.63395  Biso   1.000  C
  C104     1.0000 0.92679  0.63395  0.63395  Biso   1.000  C
  C105     1.0000 0.63395  0.92679  0.80531  Biso   1.000  C
  C106     1.0000 0.63395  0.80531  0.92679  Biso   1.000  C
  O1       1.0000 0.95542  0.10417  0.06711  Biso   1.000  O
  O2       1.0000 0.36793  0.69164  0.47965  Biso   1.000  O
  O3       1.0000 0.36793  0.51727  0.47965  Biso   1.000  O
  O4       1.0000 0.95542  0.92980  0.06711  Biso   1.000  O
  O5       1.0000 0.95516  0.10437  0.89259  Biso   1.000  O
  O6       1.0000 0.78070  0.10424  0.06732  Biso   1.000  O
  O7       1.0000 0.36819  0.51707  0.65416  Biso   1.000  O
  O8       1.0000 0.54265  0.51720  0.47944  Biso   1.000  O
  O9       1.0000 0.11695  0.74694  0.92570  Biso   1.000  O
  O10      1.0000 0.11170  0.96300  0.71177  Biso   1.000  O
  O11      1.0000 0.81604  0.74893  0.22824  Biso   1.000  O
  O12      1.0000 0.59499  0.96417  0.23354  Biso   1.000  O
  O13      1.0000 0.11866  0.96357  0.22644  Biso   1.000  O
  O14      1.0000 0.20640  0.35453  0.62106  Biso   1.000  O
  O15      1.0000 0.21165  0.35142  0.83499  Biso   1.000  O
  O16      1.0000 0.50731  0.35815  0.31852  Biso   1.000  O
  O17      1.0000 0.72836  0.35765  0.31322  Biso   1.000  O
  O18      1.0000 0.20469  0.87361  0.32032  Biso   1.000  O
  O19      1.0000 0.20640  0.87450  0.62106  Biso   1.000  O
  O20      1.0000 0.21165  0.65844  0.83499  Biso   1.000  O
  O21      1.0000 0.50731  0.87251  0.31852  Biso   1.000  O
  O22      1.0000 0.72836  0.65727  0.31322  Biso   1.000  O
  O23      1.0000 0.20469  0.65787  0.32032  Biso   1.000  O
  O24      1.0000 0.11695  0.26691  0.92570  Biso   1.000  O
  O25      1.0000 0.11170  0.27002  0.71177  Biso   1.000  O
  O26      1.0000 0.81604  0.26329  0.22824  Biso   1.000  O
  O27      1.0000 0.59499  0.26379  0.23354  Biso   1.000  O
  O28      1.0000 0.11866  0.74783  0.22644  Biso   1.000  O
  O29      1.0000 0.59888  0.26561  0.92640  Biso   1.000  O
  O30      1.0000 0.81198  0.26832  0.70787  Biso   1.000  O
  O31      1.0000 0.72447  0.35583  0.62036  Biso   1.000  O
  O32      1.0000 0.51137  0.35312  0.83889  Biso   1.000  O
  O33      1.0000 0.05050  0.92008  0.88699  Biso   1.000  O
  O34      1.0000 0.10911  0.86308  0.82659  Biso   1.000  O
  O35      1.0000 0.13585  0.77345  0.86339  Biso   1.000  O
  O36      1.0000 0.13270  0.90079  0.73738  Biso   1.000  O
  O37      1.0000 0.77310  0.92127  0.16363  Biso   1.000  O
  O38      1.0000 0.71600  0.86556  0.22054  Biso   1.000  O
  O39      1.0000 0.75394  0.77463  0.24574  Biso   1.000  O
  O40      1.0000 0.62259  0.90216  0.24914  Biso   1.000  O
  O41      1.0000 0.13496  0.90147  0.24594  Biso   1.000  O
  O42      1.0000 0.27284  0.42253  0.65977  Biso   1.000  O
  O43      1.0000 0.21424  0.36373  0.72017  Biso   1.000  O
  O44      1.0000 0.18751  0.33763  0.68337  Biso   1.000  O
  O45      1.0000 0.19065  0.33582  0.80938  Biso   1.000  O
  O46      1.0000 0.55025  0.42295  0.38313  Biso   1.000  O
  O47      1.0000 0.60735  0.36705  0.32622  Biso   1.000  O
  O48      1.0000 0.56941  0.33925  0.30102  Biso   1.000  O
  O49      1.0000 0.70075  0.33885  0.29762  Biso   1.000  O
  O50      1.0000 0.18838  0.84731  0.30082  Biso   1.000  O
  O51      1.0000 0.27285  0.70135  0.65977  Biso   1.000  O
  O52      1.0000 0.21425  0.75835  0.72017  Biso   1.000  O
  O53      1.0000 0.18750  0.84799  0.68337  Biso   1.000  O
  O54      1.0000 0.19065  0.72065  0.80938  Biso   1.000  O
  O55      1.0000 0.55025  0.70017  0.38313  Biso   1.000  O
  O56      1.0000 0.60735  0.75587  0.32622  Biso   1.000  O
  O57      1.0000 0.56941  0.84681  0.30102  Biso   1.000  O
  O58      1.0000 0.70076  0.71927  0.29762  Biso   1.000  O
  O59      1.0000 0.18839  0.71997  0.30082  Biso   1.000  O
  O60      1.0000 0.05051  0.19890  0.88699  Biso   1.000  O
  O61      1.0000 0.10911  0.25771  0.82659  Biso   1.000  O
  O62      1.0000 0.13585  0.28381  0.86339  Biso   1.000  O
  O63      1.0000 0.13270  0.28562  0.73738  Biso   1.000  O
  O64      1.0000 0.77310  0.19849  0.16363  Biso   1.000  O
  O65      1.0000 0.71600  0.25439  0.22054  Biso   1.000  O
  O66      1.0000 0.75394  0.28219  0.24574  Biso   1.000  O
  O67      1.0000 0.62260  0.28259  0.24914  Biso   1.000  O
  O68      1.0000 0.13497  0.77413  0.24594  Biso   1.000  O
  O69      1.0000 0.77489  0.20061  0.88039  Biso   1.000  O
  O70      1.0000 0.71568  0.25671  0.82739  Biso   1.000  O
  O71      1.0000 0.62548  0.28331  0.86439  Biso   1.000  O
  O72      1.0000 0.74968  0.28572  0.73537  Biso   1.000  O
  O73      1.0000 0.04972  0.92417  0.15843  Biso   1.000  O
  O74      1.0000 0.10812  0.86396  0.22044  Biso   1.000  O
  O75      1.0000 0.54846  0.42083  0.66637  Biso   1.000  O
  O76      1.0000 0.60767  0.36473  0.71937  Biso   1.000  O
  O77      1.0000 0.69787  0.33813  0.68237  Biso   1.000  O
  O78      1.0000 0.57367  0.33572  0.81138  Biso   1.000  O
  O79      1.0000 0.27363  0.69727  0.38833  Biso   1.000  O
  O80      1.0000 0.21523  0.75747  0.32632  Biso   1.000  O
  O81      1.0000 0.02840  0.00579  0.84349  Biso   1.000  O
  O82      1.0000 0.03081  0.87958  0.96970  Biso   1.000  O
  O83      1.0000 0.73220  0.00688  0.13833  Biso   1.000  O
  O84      1.0000 0.85740  0.88107  0.14113  Biso   1.000  O
  O85      1.0000 0.02872  0.00718  0.13883  Biso   1.000  O
  O86      1.0000 0.29495  0.44263  0.70327  Biso   1.000  O
  O87      1.0000 0.29254  0.44504  0.57706  Biso   1.000  O
  O88      1.0000 0.59115  0.44235  0.40843  Biso   1.000  O
  O89      1.0000 0.46595  0.44455  0.40563  Biso   1.000  O
  O90      1.0000 0.29464  0.73967  0.40793  Biso   1.000  O
  O91      1.0000 0.29495  0.61564  0.70327  Biso   1.000  O
  O92      1.0000 0.29254  0.74186  0.57706  Biso   1.000  O
  O93      1.0000 0.59115  0.61456  0.40843  Biso   1.000  O
  O94      1.0000 0.46595  0.74037  0.40563  Biso   1.000  O
  O95      1.0000 0.29463  0.61426  0.40793  Biso   1.000  O
  O96      1.0000 0.02840  0.17881  0.84349  Biso   1.000  O
  O97      1.0000 0.03081  0.17640  0.96970  Biso   1.000  O
  O98      1.0000 0.73220  0.17909  0.13833  Biso   1.000  O
  O99      1.0000 0.85741  0.17689  0.14113  Biso   1.000  O
  O100     1.0000 0.02872  0.88177  0.13883  Biso   1.000  O
  O101     1.0000 0.91170  0.06079  0.02321  Biso   1.000  O
  O102     1.0000 0.85719  0.17741  0.84449  Biso   1.000  O
  O103     1.0000 0.73349  0.17900  0.96500  Biso   1.000  O
  O104     1.0000 0.41165  0.56065  0.52355  Biso   1.000  O
  O105     1.0000 0.46616  0.44403  0.70227  Biso   1.000  O
