data_image0
_cell_length_a       18.2704
_cell_length_b       18.2704
_cell_length_c       18.2704
_cell_angle_alpha    60
_cell_angle_beta     60
_cell_angle_gamma    60

_symmetry_space_group_name_H-M    "P 1"
_symmetry_int_tables_number       1

loop_
  _symmetry_equiv_pos_as_xyz
  'x, y, z'

loop_
  _atom_site_label
  _atom_site_occupancy
  _atom_site_fract_x
  _atom_site_fract_y
  _atom_site_fract_z
  _atom_site_thermal_displace_type
  _atom_site_B_iso_or_equiv
  _atom_site_type_symbol
  C1       1.0000 0.29350  0.29349  0.11952  Biso   1.000  C
  C2       1.0000 0.29350  0.29349  0.29349  Biso   1.000  C
  C3       1.0000 0.11953  0.29349  0.29349  Biso   1.000  C
  C4       1.0000 0.29350  0.11952  0.29349  Biso   1.000  C
  C5       1.0000 0.70650  0.70651  0.88048  Biso   1.000  C
  C6       1.0000 0.70650  0.70651  0.70651  Biso   1.000  C
  C7       1.0000 0.70650  0.88048  0.70651  Biso   1.000  C
  C8       1.0000 0.88047  0.70651  0.70651  Biso   1.000  C
  C9       1.0000 0.45540  0.45540  0.93560  Biso   1.000  C
  C10      1.0000 0.45540  0.45540  0.15360  Biso   1.000  C
  C11      1.0000 0.93560  0.15360  0.45540  Biso   1.000  C
  C12      1.0000 0.15360  0.93560  0.45540  Biso   1.000  C
  C13      1.0000 0.45540  0.93560  0.15360  Biso   1.000  C
  C14      1.0000 0.45540  0.15360  0.93560  Biso   1.000  C
  C15      1.0000 0.93560  0.45540  0.45540  Biso   1.000  C
  C16      1.0000 0.15360  0.45540  0.45540  Biso   1.000  C
  C17      1.0000 0.45540  0.15360  0.45540  Biso   1.000  C
  C18      1.0000 0.45540  0.93560  0.45540  Biso   1.000  C
  C19      1.0000 0.93560  0.45540  0.15360  Biso   1.000  C
  C20      1.0000 0.15360  0.45540  0.93560  Biso   1.000  C
  C21      1.0000 0.54460  0.54460  0.06440  Biso   1.000  C
  C22      1.0000 0.54460  0.54460  0.84640  Biso   1.000  C
  C23      1.0000 0.84640  0.06440  0.54460  Biso   1.000  C
  C24      1.0000 0.06440  0.84640  0.54460  Biso   1.000  C
  C25      1.0000 0.06440  0.54460  0.84640  Biso   1.000  C
  C26      1.0000 0.84640  0.54460  0.06440  Biso   1.000  C
  C27      1.0000 0.54460  0.06440  0.54460  Biso   1.000  C
  C28      1.0000 0.54460  0.84640  0.54460  Biso   1.000  C
  C29      1.0000 0.84640  0.54460  0.54460  Biso   1.000  C
  C30      1.0000 0.06440  0.54460  0.54460  Biso   1.000  C
  C31      1.0000 0.54460  0.06440  0.84640  Biso   1.000  C
  C32      1.0000 0.54460  0.84640  0.06440  Biso   1.000  C
  C33      1.0000 0.47338  0.47338  0.96238  Biso   1.000  C
  C34      1.0000 0.47338  0.47338  0.09086  Biso   1.000  C
  C35      1.0000 0.96238  0.09086  0.47338  Biso   1.000  C
  C36      1.0000 0.09086  0.96238  0.47338  Biso   1.000  C
  C37      1.0000 0.47338  0.96238  0.09086  Biso   1.000  C
  C38      1.0000 0.47338  0.09086  0.96238  Biso   1.000  C
  C39      1.0000 0.96238  0.47338  0.47338  Biso   1.000  C
  C40      1.0000 0.09086  0.47338  0.47338  Biso   1.000  C
  C41      1.0000 0.47338  0.09086  0.47338  Biso   1.000  C
  C42      1.0000 0.47338  0.96238  0.47338  Biso   1.000  C
  C43      1.0000 0.96238  0.47338  0.09086  Biso   1.000  C
  C44      1.0000 0.09086  0.47338  0.96238  Biso   1.000  C
  C45      1.0000 0.52662  0.52662  0.03762  Biso   1.000  C
  C46      1.0000 0.52662  0.52662  0.90914  Biso   1.000  C
  C47      1.0000 0.90914  0.03762  0.52662  Biso   1.000  C
  C48      1.0000 0.03762  0.90914  0.52662  Biso   1.000  C
  C49      1.0000 0.03762  0.52662  0.90914  Biso   1.000  C
  C50      1.0000 0.90914  0.52662  0.03762  Biso   1.000  C
  C51      1.0000 0.52662  0.03762  0.52662  Biso   1.000  C
  C52      1.0000 0.52662  0.90914  0.52662  Biso   1.000  C
  C53      1.0000 0.90914  0.52662  0.52662  Biso   1.000  C
  C54      1.0000 0.03762  0.52662  0.52662  Biso   1.000  C
  C55      1.0000 0.52662  0.03762  0.90914  Biso   1.000  C
  C56      1.0000 0.52662  0.90914  0.03762  Biso   1.000  C
  C57      1.0000 0.38861  0.38861  0.11139  Biso   1.000  C
  C58      1.0000 0.44619  0.44619  0.05381  Biso   1.000  C
  C59      1.0000 0.11139  0.11139  0.38861  Biso   1.000  C
  C60      1.0000 0.05381  0.05381  0.44619  Biso   1.000  C
  C61      1.0000 0.38861  0.11139  0.11139  Biso   1.000  C
  C62      1.0000 0.44619  0.05381  0.05381  Biso   1.000  C
  C63      1.0000 0.11139  0.38861  0.38861  Biso   1.000  C
  C64      1.0000 0.05381  0.44619  0.44619  Biso   1.000  C
  C65      1.0000 0.38861  0.11139  0.38861  Biso   1.000  C
  C66      1.0000 0.44619  0.05381  0.44619  Biso   1.000  C
  C67      1.0000 0.11139  0.38861  0.11139  Biso   1.000  C
  C68      1.0000 0.05381  0.44619  0.05381  Biso   1.000  C
  C69      1.0000 0.61139  0.61139  0.88861  Biso   1.000  C
  C70      1.0000 0.55381  0.55381  0.94619  Biso   1.000  C
  C71      1.0000 0.88861  0.88861  0.61139  Biso   1.000  C
  C72      1.0000 0.94619  0.94619  0.55381  Biso   1.000  C
  C73      1.0000 0.88861  0.61139  0.88861  Biso   1.000  C
  C74      1.0000 0.94619  0.55381  0.94619  Biso   1.000  C
  C75      1.0000 0.61139  0.88861  0.61139  Biso   1.000  C
  C76      1.0000 0.55381  0.94619  0.55381  Biso   1.000  C
  C77      1.0000 0.88861  0.61139  0.61139  Biso   1.000  C
  C78      1.0000 0.94619  0.55381  0.55381  Biso   1.000  C
  C79      1.0000 0.61139  0.88861  0.88861  Biso   1.000  C
  C80      1.0000 0.55381  0.94619  0.94619  Biso   1.000  C
  C81      1.0000 0.25000  0.25000  0.25000  Biso   1.000  C
  C82      1.0000 0.75000  0.75000  0.75000  Biso   1.000  C
  C83      1.0000 0.36607  0.36607  0.07299  Biso   1.000  C
  C84      1.0000 0.36607  0.36607  0.19487  Biso   1.000  C
  C85      1.0000 0.07299  0.19487  0.36607  Biso   1.000  C
  C86      1.0000 0.19487  0.07299  0.36607  Biso   1.000  C
  C87      1.0000 0.36607  0.07299  0.19487  Biso   1.000  C
  C88      1.0000 0.36607  0.19487  0.07299  Biso   1.000  C
  C89      1.0000 0.07299  0.36607  0.36607  Biso   1.000  C
  C90      1.0000 0.19487  0.36607  0.36607  Biso   1.000  C
  C91      1.0000 0.36607  0.19487  0.36607  Biso   1.000  C
  C92      1.0000 0.36607  0.07299  0.36607  Biso   1.000  C
  C93      1.0000 0.07299  0.36607  0.19487  Biso   1.000  C
  C94      1.0000 0.19487  0.36607  0.07299  Biso   1.000  C
  C95      1.0000 0.63393  0.63393  0.92701  Biso   1.000  C
  C96      1.0000 0.63393  0.63393  0.80513  Biso   1.000  C
  C97      1.0000 0.80513  0.92701  0.63393  Biso   1.000  C
  C98      1.0000 0.92701  0.80513  0.63393  Biso   1.000  C
  C99      1.0000 0.92701  0.63393  0.80513  Biso   1.000  C
  C100     1.0000 0.80513  0.63393  0.92701  Biso   1.000  C
  C101     1.0000 0.63393  0.92701  0.63393  Biso   1.000  C
  C102     1.0000 0.63393  0.80513  0.63393  Biso   1.000  C
  C103     1.0000 0.80513  0.63393  0.63393  Biso   1.000  C
  C104     1.0000 0.92701  0.63393  0.63393  Biso   1.000  C
  C105     1.0000 0.63393  0.92701  0.80513  Biso   1.000  C
  C106     1.0000 0.63393  0.80513  0.92701  Biso   1.000  C
  O1       1.0000 0.99318  0.97353  0.87145  Biso   1.000  O
  O2       1.0000 0.57510  0.56325  0.46314  Biso   1.000  O
  O3       1.0000 0.99270  0.14796  0.87213  Biso   1.000  O
  O4       1.0000 0.99285  0.97378  0.04602  Biso   1.000  O
  O5       1.0000 0.16702  0.97421  0.87213  Biso   1.000  O
  O6       1.0000 0.40125  0.56257  0.46245  Biso   1.000  O
  O7       1.0000 0.57543  0.56300  0.28856  Biso   1.000  O
  O8       1.0000 0.57557  0.38882  0.46245  Biso   1.000  O
  O9       1.0000 0.82629  0.11083  0.23302  Biso   1.000  O
  O10      1.0000 0.35355  0.80875  0.00976  Biso   1.000  O
  O11      1.0000 0.12948  0.33522  0.70688  Biso   1.000  O
  O12      1.0000 0.43835  0.72858  0.10156  Biso   1.000  O
  O13      1.0000 0.74218  0.20232  0.32482  Biso   1.000  O
  O14      1.0000 0.21498  0.42464  0.62770  Biso   1.000  O
  O15      1.0000 0.74199  0.42595  0.10156  Biso   1.000  O
  O16      1.0000 0.21472  0.72802  0.32482  Biso   1.000  O
  O17      1.0000 0.43879  0.20156  0.62770  Biso   1.000  O
  O18      1.0000 0.12992  0.80820  0.23302  Biso   1.000  O
  O19      1.0000 0.82610  0.33446  0.00976  Biso   1.000  O
  O20      1.0000 0.35330  0.11214  0.70688  Biso   1.000  O
  O21      1.0000 0.83407  0.32846  0.71312  Biso   1.000  O
  O22      1.0000 0.82842  0.11315  0.70597  Biso   1.000  O
  O23      1.0000 0.83450  0.81445  0.22628  Biso   1.000  O
  O24      1.0000 0.82868  0.80785  0.01077  Biso   1.000  O
  O25      1.0000 0.34851  0.81573  0.71312  Biso   1.000  O
  O26      1.0000 0.13398  0.80861  0.70597  Biso   1.000  O
  O27      1.0000 0.21977  0.72105  0.62146  Biso   1.000  O
  O28      1.0000 0.43430  0.72817  0.62861  Biso   1.000  O
  O29      1.0000 0.73377  0.72233  0.10831  Biso   1.000  O
  O30      1.0000 0.73960  0.72893  0.32382  Biso   1.000  O
  O31      1.0000 0.73420  0.20832  0.62146  Biso   1.000  O
  O32      1.0000 0.73985  0.42363  0.62861  Biso   1.000  O
  O33      1.0000 0.81109  0.17285  0.20625  Biso   1.000  O
  O34      1.0000 0.32663  0.79361  0.07177  Biso   1.000  O
  O35      1.0000 0.19150  0.30850  0.69188  Biso   1.000  O
  O36      1.0000 0.37635  0.74350  0.12834  Biso   1.000  O
  O37      1.0000 0.75729  0.22923  0.26282  Biso   1.000  O
  O38      1.0000 0.24197  0.36265  0.64270  Biso   1.000  O
  O39      1.0000 0.75718  0.36393  0.12834  Biso   1.000  O
  O40      1.0000 0.24165  0.74317  0.26282  Biso   1.000  O
  O41      1.0000 0.37678  0.22828  0.64270  Biso   1.000  O
  O42      1.0000 0.19193  0.79328  0.20625  Biso   1.000  O
  O43      1.0000 0.81098  0.30755  0.07177  Biso   1.000  O
  O44      1.0000 0.32631  0.17413  0.69188  Biso   1.000  O
  O45      1.0000 0.89748  0.15884  0.77603  Biso   1.000  O
  O46      1.0000 0.83992  0.21319  0.71825  Biso   1.000  O
  O47      1.0000 0.81489  0.30508  0.69359  Biso   1.000  O
  O48      1.0000 0.81157  0.17504  0.68937  Biso   1.000  O
  O49      1.0000 0.89772  0.87773  0.05667  Biso   1.000  O
  O50      1.0000 0.84025  0.81987  0.11092  Biso   1.000  O
  O51      1.0000 0.81532  0.79500  0.20282  Biso   1.000  O
  O52      1.0000 0.81189  0.79110  0.07267  Biso   1.000  O
  O53      1.0000 0.17882  0.87843  0.77603  Biso   1.000  O
  O54      1.0000 0.23357  0.82085  0.71825  Biso   1.000  O
  O55      1.0000 0.32539  0.79627  0.69359  Biso   1.000  O
  O56      1.0000 0.19583  0.79206  0.68937  Biso   1.000  O
  O57      1.0000 0.38946  0.65835  0.55855  Biso   1.000  O
  O58      1.0000 0.33471  0.71593  0.61633  Biso   1.000  O
  O59      1.0000 0.24288  0.74051  0.64099  Biso   1.000  O
  O60      1.0000 0.37244  0.74472  0.64522  Biso   1.000  O
  O61      1.0000 0.67056  0.65905  0.27792  Biso   1.000  O
  O62      1.0000 0.72803  0.71691  0.22366  Biso   1.000  O
  O63      1.0000 0.75296  0.74178  0.13176  Biso   1.000  O
  O64      1.0000 0.75639  0.74568  0.26191  Biso   1.000  O
  O65      1.0000 0.67079  0.37794  0.55855  Biso   1.000  O
  O66      1.0000 0.72836  0.32359  0.61633  Biso   1.000  O
  O67      1.0000 0.75338  0.23170  0.64099  Biso   1.000  O
  O68      1.0000 0.75671  0.36174  0.64522  Biso   1.000  O
  O69      1.0000 0.89627  0.15743  0.05596  Biso   1.000  O
  O70      1.0000 0.84368  0.21065  0.10936  Biso   1.000  O
  O71      1.0000 0.17650  0.87814  0.05596  Biso   1.000  O
  O72      1.0000 0.22971  0.82591  0.10936  Biso   1.000  O
  O73      1.0000 0.17626  0.15813  0.77644  Biso   1.000  O
  O74      1.0000 0.22939  0.21162  0.72429  Biso   1.000  O
  O75      1.0000 0.39178  0.65864  0.27862  Biso   1.000  O
  O76      1.0000 0.33856  0.71087  0.22522  Biso   1.000  O
  O77      1.0000 0.67200  0.37935  0.27862  Biso   1.000  O
  O78      1.0000 0.72459  0.32613  0.22522  Biso   1.000  O
  O79      1.0000 0.39201  0.37865  0.55815  Biso   1.000  O
  O80      1.0000 0.33889  0.32516  0.61029  Biso   1.000  O
  O81      1.0000 0.92018  0.19606  0.96717  Biso   1.000  O
  O82      1.0000 0.08769  0.90177  0.09441  Biso   1.000  O
  O83      1.0000 0.21500  0.06935  0.80018  Biso   1.000  O
  O84      1.0000 0.35314  0.63470  0.36741  Biso   1.000  O
  O85      1.0000 0.64799  0.46816  0.24018  Biso   1.000  O
  O86      1.0000 0.48083  0.34030  0.53440  Biso   1.000  O
  O87      1.0000 0.64810  0.34072  0.36741  Biso   1.000  O
  O88      1.0000 0.48058  0.63501  0.24018  Biso   1.000  O
  O89      1.0000 0.35328  0.46742  0.53440  Biso   1.000  O
  O90      1.0000 0.21514  0.90208  0.96717  Biso   1.000  O
  O91      1.0000 0.92028  0.06862  0.09441  Biso   1.000  O
  O92      1.0000 0.08745  0.19648  0.80018  Biso   1.000  O
  O93      1.0000 0.03816  0.01912  0.91719  Biso   1.000  O
  O94      1.0000 0.53011  0.51766  0.41740  Biso   1.000  O
  O95      1.0000 0.92079  0.07037  0.79898  Biso   1.000  O
  O96      1.0000 0.91965  0.19710  0.79868  Biso   1.000  O
  O97      1.0000 0.92093  0.90088  0.96819  Biso   1.000  O
  O98      1.0000 0.91990  0.90027  0.09502  Biso   1.000  O
  O99      1.0000 0.09042  0.90131  0.79898  Biso   1.000  O
  O100     1.0000 0.21673  0.90101  0.79868  Biso   1.000  O
  O101     1.0000 0.47786  0.63547  0.53560  Biso   1.000  O
  O102     1.0000 0.35155  0.63577  0.53590  Biso   1.000  O
  O103     1.0000 0.64734  0.63590  0.36639  Biso   1.000  O
  O104     1.0000 0.64837  0.63651  0.23956  Biso   1.000  O
  O105     1.0000 0.64748  0.46641  0.53560  Biso   1.000  O
