data_image0
_cell_length_a       18.2422
_cell_length_b       18.2422
_cell_length_c       18.2422
_cell_angle_alpha    60
_cell_angle_beta     60
_cell_angle_gamma    60

_symmetry_space_group_name_H-M    "P 1"
_symmetry_int_tables_number       1

loop_
  _symmetry_equiv_pos_as_xyz
  'x, y, z'

loop_
  _atom_site_label
  _atom_site_occupancy
  _atom_site_fract_x
  _atom_site_fract_y
  _atom_site_fract_z
  _atom_site_thermal_displace_type
  _atom_site_B_iso_or_equiv
  _atom_site_type_symbol
  Zn1      1.0000 0.29356  0.29355  0.11934  Biso   1.000  Zn
  Zn2      1.0000 0.29356  0.29355  0.29355  Biso   1.000  Zn
  Zn3      1.0000 0.11935  0.29355  0.29355  Biso   1.000  Zn
  Zn4      1.0000 0.29356  0.11934  0.29355  Biso   1.000  Zn
  Zn5      1.0000 0.70644  0.70645  0.88066  Biso   1.000  Zn
  Zn6      1.0000 0.70644  0.70645  0.70645  Biso   1.000  Zn
  Zn7      1.0000 0.70644  0.88066  0.70645  Biso   1.000  Zn
  Zn8      1.0000 0.88065  0.70645  0.70645  Biso   1.000  Zn
  H1       1.0000 0.45610  0.45610  0.93590  Biso   1.000  H
  H2       1.0000 0.45610  0.45610  0.15190  Biso   1.000  H
  H3       1.0000 0.93590  0.15190  0.45610  Biso   1.000  H
  H4       1.0000 0.15190  0.93590  0.45610  Biso   1.000  H
  H5       1.0000 0.45610  0.93590  0.15190  Biso   1.000  H
  H6       1.0000 0.45610  0.15190  0.93590  Biso   1.000  H
  H7       1.0000 0.93590  0.45610  0.45610  Biso   1.000  H
  H8       1.0000 0.15190  0.45610  0.45610  Biso   1.000  H
  H9       1.0000 0.45610  0.15190  0.45610  Biso   1.000  H
  H10      1.0000 0.45610  0.93590  0.45610  Biso   1.000  H
  H11      1.0000 0.93590  0.45610  0.15190  Biso   1.000  H
  H12      1.0000 0.15190  0.45610  0.93590  Biso   1.000  H
  H13      1.0000 0.54390  0.54390  0.06410  Biso   1.000  H
  H14      1.0000 0.54390  0.54390  0.84810  Biso   1.000  H
  H15      1.0000 0.84810  0.06410  0.54390  Biso   1.000  H
  H16      1.0000 0.06410  0.84810  0.54390  Biso   1.000  H
  H17      1.0000 0.06410  0.54390  0.84810  Biso   1.000  H
  H18      1.0000 0.84810  0.54390  0.06410  Biso   1.000  H
  H19      1.0000 0.54390  0.06410  0.54390  Biso   1.000  H
  H20      1.0000 0.54390  0.84810  0.54390  Biso   1.000  H
  H21      1.0000 0.84810  0.54390  0.54390  Biso   1.000  H
  H22      1.0000 0.06410  0.54390  0.54390  Biso   1.000  H
  H23      1.0000 0.54390  0.06410  0.84810  Biso   1.000  H
  H24      1.0000 0.54390  0.84810  0.06410  Biso   1.000  H
  C1       1.0000 0.47369  0.47369  0.96285  Biso   1.000  C
  C2       1.0000 0.47369  0.47369  0.08977  Biso   1.000  C
  C3       1.0000 0.96285  0.08977  0.47369  Biso   1.000  C
  C4       1.0000 0.08977  0.96285  0.47369  Biso   1.000  C
  C5       1.0000 0.47369  0.96285  0.08977  Biso   1.000  C
  C6       1.0000 0.47369  0.08977  0.96285  Biso   1.000  C
  C7       1.0000 0.96285  0.47369  0.47369  Biso   1.000  C
  C8       1.0000 0.08977  0.47369  0.47369  Biso   1.000  C
  C9       1.0000 0.47369  0.08977  0.47369  Biso   1.000  C
  C10      1.0000 0.47369  0.96285  0.47369  Biso   1.000  C
  C11      1.0000 0.96285  0.47369  0.08977  Biso   1.000  C
  C12      1.0000 0.08977  0.47369  0.96285  Biso   1.000  C
  C13      1.0000 0.52631  0.52631  0.03715  Biso   1.000  C
  C14      1.0000 0.52631  0.52631  0.91023  Biso   1.000  C
  C15      1.0000 0.91023  0.03715  0.52631  Biso   1.000  C
  C16      1.0000 0.03715  0.91023  0.52631  Biso   1.000  C
  C17      1.0000 0.03715  0.52631  0.91023  Biso   1.000  C
  C18      1.0000 0.91023  0.52631  0.03715  Biso   1.000  C
  C19      1.0000 0.52631  0.03715  0.52631  Biso   1.000  C
  C20      1.0000 0.52631  0.91023  0.52631  Biso   1.000  C
  C21      1.0000 0.91023  0.52631  0.52631  Biso   1.000  C
  C22      1.0000 0.03715  0.52631  0.52631  Biso   1.000  C
  C23      1.0000 0.52631  0.03715  0.91023  Biso   1.000  C
  C24      1.0000 0.52631  0.91023  0.03715  Biso   1.000  C
  C25      1.0000 0.38870  0.38870  0.11130  Biso   1.000  C
  C26      1.0000 0.44610  0.44610  0.05390  Biso   1.000  C
  C27      1.0000 0.11130  0.11130  0.38870  Biso   1.000  C
  C28      1.0000 0.05390  0.05390  0.44610  Biso   1.000  C
  C29      1.0000 0.38870  0.11130  0.11130  Biso   1.000  C
  C30      1.0000 0.44610  0.05390  0.05390  Biso   1.000  C
  C31      1.0000 0.11130  0.38870  0.38870  Biso   1.000  C
  C32      1.0000 0.05390  0.44610  0.44610  Biso   1.000  C
  C33      1.0000 0.38870  0.11130  0.38870  Biso   1.000  C
  C34      1.0000 0.44610  0.05390  0.44610  Biso   1.000  C
  C35      1.0000 0.11130  0.38870  0.11130  Biso   1.000  C
  C36      1.0000 0.05390  0.44610  0.05390  Biso   1.000  C
  C37      1.0000 0.61130  0.61130  0.88870  Biso   1.000  C
  C38      1.0000 0.55390  0.55390  0.94610  Biso   1.000  C
  C39      1.0000 0.88870  0.88870  0.61130  Biso   1.000  C
  C40      1.0000 0.94610  0.94610  0.55390  Biso   1.000  C
  C41      1.0000 0.88870  0.61130  0.88870  Biso   1.000  C
  C42      1.0000 0.94610  0.55390  0.94610  Biso   1.000  C
  C43      1.0000 0.61130  0.88870  0.61130  Biso   1.000  C
  C44      1.0000 0.55390  0.94610  0.55390  Biso   1.000  C
  C45      1.0000 0.88870  0.61130  0.61130  Biso   1.000  C
  C46      1.0000 0.94610  0.55390  0.55390  Biso   1.000  C
  C47      1.0000 0.61130  0.88870  0.88870  Biso   1.000  C
  C48      1.0000 0.55390  0.94610  0.94610  Biso   1.000  C
  O1       1.0000 0.25000  0.25000  0.25000  Biso   1.000  O
  O2       1.0000 0.75000  0.75000  0.75000  Biso   1.000  O
  O3       1.0000 0.36609  0.36609  0.07323  Biso   1.000  O
  O4       1.0000 0.36609  0.36609  0.19459  Biso   1.000  O
  O5       1.0000 0.07323  0.19459  0.36609  Biso   1.000  O
  O6       1.0000 0.19459  0.07323  0.36609  Biso   1.000  O
  O7       1.0000 0.36609  0.07323  0.19459  Biso   1.000  O
  O8       1.0000 0.36609  0.19459  0.07323  Biso   1.000  O
  O9       1.0000 0.07323  0.36609  0.36609  Biso   1.000  O
  O10      1.0000 0.19459  0.36609  0.36609  Biso   1.000  O
  O11      1.0000 0.36609  0.19459  0.36609  Biso   1.000  O
  O12      1.0000 0.36609  0.07323  0.36609  Biso   1.000  O
  O13      1.0000 0.07323  0.36609  0.19459  Biso   1.000  O
  O14      1.0000 0.19459  0.36609  0.07323  Biso   1.000  O
  O15      1.0000 0.63391  0.63391  0.92677  Biso   1.000  O
  O16      1.0000 0.63391  0.63391  0.80541  Biso   1.000  O
  O17      1.0000 0.80541  0.92677  0.63391  Biso   1.000  O
  O18      1.0000 0.92677  0.80541  0.63391  Biso   1.000  O
  O19      1.0000 0.92677  0.63391  0.80541  Biso   1.000  O
  O20      1.0000 0.80541  0.63391  0.92677  Biso   1.000  O
  O21      1.0000 0.63391  0.92677  0.63391  Biso   1.000  O
  O22      1.0000 0.63391  0.80541  0.63391  Biso   1.000  O
  O23      1.0000 0.80541  0.63391  0.63391  Biso   1.000  O
  O24      1.0000 0.92677  0.63391  0.63391  Biso   1.000  O
  O25      1.0000 0.63391  0.92677  0.80541  Biso   1.000  O
  O26      1.0000 0.63391  0.80541  0.92677  Biso   1.000  O
  Zn9      1.0000 0.95586  0.10422  0.06714  Biso   1.000  Zn
  Zn10     1.0000 0.36810  0.69196  0.47941  Biso   1.000  Zn
  Zn11     1.0000 0.36810  0.51751  0.47941  Biso   1.000  Zn
  Zn12     1.0000 0.95586  0.92976  0.06714  Biso   1.000  Zn
  Zn13     1.0000 0.95560  0.10442  0.89254  Biso   1.000  Zn
  Zn14     1.0000 0.78106  0.10429  0.06735  Biso   1.000  Zn
  Zn15     1.0000 0.36836  0.51731  0.65400  Biso   1.000  Zn
  Zn16     1.0000 0.54291  0.51744  0.47920  Biso   1.000  Zn
  H25      1.0000 0.11700  0.74729  0.92566  Biso   1.000  H
  H26      1.0000 0.11222  0.96298  0.71164  Biso   1.000  H
  H27      1.0000 0.81596  0.74928  0.22834  Biso   1.000  H
  H28      1.0000 0.59527  0.96415  0.23365  Biso   1.000  H
  H29      1.0000 0.11872  0.96355  0.22654  Biso   1.000  H
  H30      1.0000 0.20697  0.35469  0.62088  Biso   1.000  H
  H31      1.0000 0.21175  0.35158  0.83491  Biso   1.000  H
  H32      1.0000 0.50801  0.35831  0.31820  Biso   1.000  H
  H33      1.0000 0.72870  0.35781  0.31290  Biso   1.000  H
  H34      1.0000 0.20525  0.87355  0.32001  Biso   1.000  H
  H35      1.0000 0.20696  0.87444  0.62088  Biso   1.000  H
  H36      1.0000 0.21175  0.65875  0.83491  Biso   1.000  H
  H37      1.0000 0.50801  0.87245  0.31820  Biso   1.000  H
  H38      1.0000 0.72870  0.65757  0.31290  Biso   1.000  H
  H39      1.0000 0.20525  0.65817  0.32001  Biso   1.000  H
  H40      1.0000 0.11700  0.26703  0.92566  Biso   1.000  H
  H41      1.0000 0.11222  0.27014  0.71164  Biso   1.000  H
  H42      1.0000 0.81596  0.26341  0.22834  Biso   1.000  H
  H43      1.0000 0.59527  0.26391  0.23365  Biso   1.000  H
  H44      1.0000 0.11872  0.74817  0.22654  Biso   1.000  H
  H45      1.0000 0.59916  0.26573  0.92636  Biso   1.000  H
  H46      1.0000 0.81236  0.26844  0.70774  Biso   1.000  H
  H47      1.0000 0.72481  0.35600  0.62018  Biso   1.000  H
  H48      1.0000 0.51161  0.35328  0.83881  Biso   1.000  H
  C49      1.0000 0.05099  0.92005  0.88694  Biso   1.000  C
  C50      1.0000 0.10962  0.86302  0.82651  Biso   1.000  C
  C51      1.0000 0.13591  0.77381  0.86333  Biso   1.000  C
  C52      1.0000 0.13323  0.90075  0.73725  Biso   1.000  C
  C53      1.0000 0.77346  0.92123  0.16371  Biso   1.000  C
  C54      1.0000 0.71633  0.86550  0.22064  Biso   1.000  C
  C55      1.0000 0.75383  0.77499  0.24585  Biso   1.000  C
  C56      1.0000 0.62288  0.90212  0.24926  Biso   1.000  C
  C57      1.0000 0.13502  0.90142  0.24605  Biso   1.000  C
  C58      1.0000 0.27297  0.42273  0.65961  Biso   1.000  C
  C59      1.0000 0.21434  0.36389  0.72004  Biso   1.000  C
  C60      1.0000 0.18806  0.33778  0.68322  Biso   1.000  C
  C61      1.0000 0.19074  0.33598  0.80930  Biso   1.000  C
  C62      1.0000 0.55051  0.42314  0.38284  Biso   1.000  C
  C63      1.0000 0.60763  0.36722  0.32591  Biso   1.000  C
  C64      1.0000 0.57014  0.33940  0.30069  Biso   1.000  C
  C65      1.0000 0.70108  0.33900  0.29729  Biso   1.000  C
  C66      1.0000 0.18894  0.84724  0.30049  Biso   1.000  C
  C67      1.0000 0.27297  0.70168  0.65961  Biso   1.000  C
  C68      1.0000 0.21435  0.75871  0.72004  Biso   1.000  C
  C69      1.0000 0.18806  0.84792  0.68322  Biso   1.000  C
  C70      1.0000 0.19074  0.72098  0.80930  Biso   1.000  C
  C71      1.0000 0.55051  0.70049  0.38284  Biso   1.000  C
  C72      1.0000 0.60764  0.75623  0.32591  Biso   1.000  C
  C73      1.0000 0.57014  0.84674  0.30069  Biso   1.000  C
  C74      1.0000 0.70108  0.71961  0.29729  Biso   1.000  C
  C75      1.0000 0.18894  0.72031  0.30049  Biso   1.000  C
  C76      1.0000 0.05100  0.19900  0.88694  Biso   1.000  C
  C77      1.0000 0.10962  0.25783  0.82651  Biso   1.000  C
  C78      1.0000 0.13591  0.28394  0.86333  Biso   1.000  C
  C79      1.0000 0.13323  0.28575  0.73725  Biso   1.000  C
  C80      1.0000 0.77346  0.19858  0.16371  Biso   1.000  C
  C81      1.0000 0.71633  0.25451  0.22064  Biso   1.000  C
  C82      1.0000 0.75382  0.28232  0.24585  Biso   1.000  C
  C83      1.0000 0.62289  0.28272  0.24926  Biso   1.000  C
  C84      1.0000 0.13503  0.77449  0.24605  Biso   1.000  C
  C85      1.0000 0.77525  0.20070  0.88034  Biso   1.000  C
  C86      1.0000 0.71601  0.25683  0.82731  Biso   1.000  C
  C87      1.0000 0.62577  0.28344  0.86433  Biso   1.000  C
  C88      1.0000 0.75003  0.28585  0.73525  Biso   1.000  C
  C89      1.0000 0.05021  0.92414  0.15850  Biso   1.000  C
  C90      1.0000 0.10864  0.86390  0.22054  Biso   1.000  C
  C91      1.0000 0.54872  0.42103  0.66621  Biso   1.000  C
  C92      1.0000 0.60795  0.36490  0.71924  Biso   1.000  C
  C93      1.0000 0.69820  0.33828  0.68222  Biso   1.000  C
  C94      1.0000 0.57394  0.33587  0.81130  Biso   1.000  C
  C95      1.0000 0.27376  0.69759  0.38805  Biso   1.000  C
  C96      1.0000 0.21533  0.75783  0.32601  Biso   1.000  C
  O27      1.0000 0.02888  0.00580  0.84342  Biso   1.000  O
  O28      1.0000 0.03129  0.87952  0.96969  Biso   1.000  O
  O29      1.0000 0.73254  0.00688  0.13839  Biso   1.000  O
  O30      1.0000 0.85780  0.88101  0.14119  Biso   1.000  O
  O31      1.0000 0.02920  0.00718  0.13889  Biso   1.000  O
  O32      1.0000 0.29509  0.44284  0.70313  Biso   1.000  O
  O33      1.0000 0.29268  0.44525  0.57686  Biso   1.000  O
  O34      1.0000 0.59143  0.44255  0.40816  Biso   1.000  O
  O35      1.0000 0.46616  0.44475  0.40536  Biso   1.000  O
  O36      1.0000 0.29477  0.74001  0.40766  Biso   1.000  O
  O37      1.0000 0.29509  0.61593  0.70313  Biso   1.000  O
  O38      1.0000 0.29268  0.74221  0.57686  Biso   1.000  O
  O39      1.0000 0.59143  0.61485  0.40816  Biso   1.000  O
  O40      1.0000 0.46616  0.74071  0.40536  Biso   1.000  O
  O41      1.0000 0.29477  0.61455  0.40766  Biso   1.000  O
  O42      1.0000 0.02888  0.17889  0.84342  Biso   1.000  O
  O43      1.0000 0.03129  0.17648  0.96969  Biso   1.000  O
  O44      1.0000 0.73254  0.17917  0.13839  Biso   1.000  O
  O45      1.0000 0.85781  0.17697  0.14119  Biso   1.000  O
  O46      1.0000 0.02919  0.88171  0.13889  Biso   1.000  O
  O47      1.0000 0.91213  0.06082  0.02322  Biso   1.000  O
  O48      1.0000 0.85759  0.17749  0.84442  Biso   1.000  O
  O49      1.0000 0.73383  0.17908  0.96499  Biso   1.000  O
  O50      1.0000 0.41184  0.56091  0.52333  Biso   1.000  O
  O51      1.0000 0.46638  0.44424  0.70213  Biso   1.000  O
