data_image0
_cell_length_a       18.2205
_cell_length_b       18.2205
_cell_length_c       18.2205
_cell_angle_alpha    60
_cell_angle_beta     60
_cell_angle_gamma    60

_symmetry_space_group_name_H-M    "P 1"
_symmetry_int_tables_number       1

loop_
  _symmetry_equiv_pos_as_xyz
  'x, y, z'

loop_
  _atom_site_label
  _atom_site_occupancy
  _atom_site_fract_x
  _atom_site_fract_y
  _atom_site_fract_z
  _atom_site_thermal_displace_type
  _atom_site_B_iso_or_equiv
  _atom_site_type_symbol
  Zn1      1.0000 0.29361  0.29361  0.11917  Biso   1.000  Zn
  Zn2      1.0000 0.29361  0.29361  0.29361  Biso   1.000  Zn
  Zn3      1.0000 0.11917  0.29361  0.29361  Biso   1.000  Zn
  Zn4      1.0000 0.29361  0.11917  0.29361  Biso   1.000  Zn
  Zn5      1.0000 0.70639  0.70639  0.88083  Biso   1.000  Zn
  Zn6      1.0000 0.70639  0.70639  0.70639  Biso   1.000  Zn
  Zn7      1.0000 0.70639  0.88083  0.70639  Biso   1.000  Zn
  Zn8      1.0000 0.88083  0.70639  0.70639  Biso   1.000  Zn
  H1       1.0000 0.45580  0.45580  0.93700  Biso   1.000  H
  H2       1.0000 0.45580  0.45580  0.15140  Biso   1.000  H
  H3       1.0000 0.93700  0.15140  0.45580  Biso   1.000  H
  H4       1.0000 0.15140  0.93700  0.45580  Biso   1.000  H
  H5       1.0000 0.45580  0.93700  0.15140  Biso   1.000  H
  H6       1.0000 0.45580  0.15140  0.93700  Biso   1.000  H
  H7       1.0000 0.93700  0.45580  0.45580  Biso   1.000  H
  H8       1.0000 0.15140  0.45580  0.45580  Biso   1.000  H
  H9       1.0000 0.45580  0.15140  0.45580  Biso   1.000  H
  H10      1.0000 0.45580  0.93700  0.45580  Biso   1.000  H
  H11      1.0000 0.93700  0.45580  0.15140  Biso   1.000  H
  H12      1.0000 0.15140  0.45580  0.93700  Biso   1.000  H
  H13      1.0000 0.54420  0.54420  0.06300  Biso   1.000  H
  H14      1.0000 0.54420  0.54420  0.84860  Biso   1.000  H
  H15      1.0000 0.84860  0.06300  0.54420  Biso   1.000  H
  H16      1.0000 0.06300  0.84860  0.54420  Biso   1.000  H
  H17      1.0000 0.06300  0.54420  0.84860  Biso   1.000  H
  H18      1.0000 0.84860  0.54420  0.06300  Biso   1.000  H
  H19      1.0000 0.54420  0.06300  0.54420  Biso   1.000  H
  H20      1.0000 0.54420  0.84860  0.54420  Biso   1.000  H
  H21      1.0000 0.84860  0.54420  0.54420  Biso   1.000  H
  H22      1.0000 0.06300  0.54420  0.54420  Biso   1.000  H
  H23      1.0000 0.54420  0.06300  0.84860  Biso   1.000  H
  H24      1.0000 0.54420  0.84860  0.06300  Biso   1.000  H
  C1       1.0000 0.47350  0.47350  0.96390  Biso   1.000  C
  C2       1.0000 0.47350  0.47350  0.08910  Biso   1.000  C
  C3       1.0000 0.96390  0.08910  0.47350  Biso   1.000  C
  C4       1.0000 0.08910  0.96390  0.47350  Biso   1.000  C
  C5       1.0000 0.47350  0.96390  0.08910  Biso   1.000  C
  C6       1.0000 0.47350  0.08910  0.96390  Biso   1.000  C
  C7       1.0000 0.96390  0.47350  0.47350  Biso   1.000  C
  C8       1.0000 0.08910  0.47350  0.47350  Biso   1.000  C
  C9       1.0000 0.47350  0.08910  0.47350  Biso   1.000  C
  C10      1.0000 0.47350  0.96390  0.47350  Biso   1.000  C
  C11      1.0000 0.96390  0.47350  0.08910  Biso   1.000  C
  C12      1.0000 0.08910  0.47350  0.96390  Biso   1.000  C
  C13      1.0000 0.52650  0.52650  0.03610  Biso   1.000  C
  C14      1.0000 0.52650  0.52650  0.91090  Biso   1.000  C
  C15      1.0000 0.91090  0.03610  0.52650  Biso   1.000  C
  C16      1.0000 0.03610  0.91090  0.52650  Biso   1.000  C
  C17      1.0000 0.03610  0.52650  0.91090  Biso   1.000  C
  C18      1.0000 0.91090  0.52650  0.03610  Biso   1.000  C
  C19      1.0000 0.52650  0.03610  0.52650  Biso   1.000  C
  C20      1.0000 0.52650  0.91090  0.52650  Biso   1.000  C
  C21      1.0000 0.91090  0.52650  0.52650  Biso   1.000  C
  C22      1.0000 0.03610  0.52650  0.52650  Biso   1.000  C
  C23      1.0000 0.52650  0.03610  0.91090  Biso   1.000  C
  C24      1.0000 0.52650  0.91090  0.03610  Biso   1.000  C
  C25      1.0000 0.38850  0.38850  0.11150  Biso   1.000  C
  C26      1.0000 0.44660  0.44660  0.05340  Biso   1.000  C
  C27      1.0000 0.11150  0.11150  0.38850  Biso   1.000  C
  C28      1.0000 0.05340  0.05340  0.44660  Biso   1.000  C
  C29      1.0000 0.38850  0.11150  0.11150  Biso   1.000  C
  C30      1.0000 0.44660  0.05340  0.05340  Biso   1.000  C
  C31      1.0000 0.11150  0.38850  0.38850  Biso   1.000  C
  C32      1.0000 0.05340  0.44660  0.44660  Biso   1.000  C
  C33      1.0000 0.38850  0.11150  0.38850  Biso   1.000  C
  C34      1.0000 0.44660  0.05340  0.44660  Biso   1.000  C
  C35      1.0000 0.11150  0.38850  0.11150  Biso   1.000  C
  C36      1.0000 0.05340  0.44660  0.05340  Biso   1.000  C
  C37      1.0000 0.61150  0.61150  0.88850  Biso   1.000  C
  C38      1.0000 0.55340  0.55340  0.94660  Biso   1.000  C
  C39      1.0000 0.88850  0.88850  0.61150  Biso   1.000  C
  C40      1.0000 0.94660  0.94660  0.55340  Biso   1.000  C
  C41      1.0000 0.88850  0.61150  0.88850  Biso   1.000  C
  C42      1.0000 0.94660  0.55340  0.94660  Biso   1.000  C
  C43      1.0000 0.61150  0.88850  0.61150  Biso   1.000  C
  C44      1.0000 0.55340  0.94660  0.55340  Biso   1.000  C
  C45      1.0000 0.88850  0.61150  0.61150  Biso   1.000  C
  C46      1.0000 0.94660  0.55340  0.55340  Biso   1.000  C
  C47      1.0000 0.61150  0.88850  0.88850  Biso   1.000  C
  C48      1.0000 0.55340  0.94660  0.94660  Biso   1.000  C
  O1       1.0000 0.25000  0.25000  0.25000  Biso   1.000  O
  O2       1.0000 0.75000  0.75000  0.75000  Biso   1.000  O
  O3       1.0000 0.36609  0.36609  0.07351  Biso   1.000  O
  O4       1.0000 0.36609  0.36609  0.19431  Biso   1.000  O
  O5       1.0000 0.07351  0.19431  0.36609  Biso   1.000  O
  O6       1.0000 0.19431  0.07351  0.36609  Biso   1.000  O
  O7       1.0000 0.36609  0.07351  0.19431  Biso   1.000  O
  O8       1.0000 0.36609  0.19431  0.07351  Biso   1.000  O
  O9       1.0000 0.07351  0.36609  0.36609  Biso   1.000  O
  O10      1.0000 0.19431  0.36609  0.36609  Biso   1.000  O
  O11      1.0000 0.36609  0.19431  0.36609  Biso   1.000  O
  O12      1.0000 0.36609  0.07351  0.36609  Biso   1.000  O
  O13      1.0000 0.07351  0.36609  0.19431  Biso   1.000  O
  O14      1.0000 0.19431  0.36609  0.07351  Biso   1.000  O
  O15      1.0000 0.63391  0.63391  0.92649  Biso   1.000  O
  O16      1.0000 0.63391  0.63391  0.80569  Biso   1.000  O
  O17      1.0000 0.80569  0.92649  0.63391  Biso   1.000  O
  O18      1.0000 0.92649  0.80569  0.63391  Biso   1.000  O
  O19      1.0000 0.92649  0.63391  0.80569  Biso   1.000  O
  O20      1.0000 0.80569  0.63391  0.92649  Biso   1.000  O
  O21      1.0000 0.63391  0.92649  0.63391  Biso   1.000  O
  O22      1.0000 0.63391  0.80569  0.63391  Biso   1.000  O
  O23      1.0000 0.80569  0.63391  0.63391  Biso   1.000  O
  O24      1.0000 0.92649  0.63391  0.63391  Biso   1.000  O
  O25      1.0000 0.63391  0.92649  0.80569  Biso   1.000  O
  O26      1.0000 0.63391  0.80569  0.92649  Biso   1.000  O
  Zn9      1.0000 0.00552  0.84242  0.13444  Biso   1.000  Zn
  Zn10     1.0000 0.83245  0.01549  0.13444  Biso   1.000  Zn
  Zn11     1.0000 0.42211  0.43208  0.72410  Biso   1.000  Zn
  Zn12     1.0000 0.00552  0.01549  0.13444  Biso   1.000  Zn
  Zn13     1.0000 0.42211  0.60515  0.55103  Biso   1.000  Zn
  Zn14     1.0000 0.42211  0.43208  0.55103  Biso   1.000  Zn
  Zn15     1.0000 0.59518  0.43208  0.55103  Biso   1.000  Zn
  Zn16     1.0000 0.00552  0.01549  0.96137  Biso   1.000  Zn
  C49      1.0000 0.62726  0.76046  0.37080  Biso   1.000  C
  C50      1.0000 0.18575  0.68712  0.31466  Biso   1.000  C
  C51      1.0000 0.75049  0.25186  0.37080  Biso   1.000  C
  C52      1.0000 0.15713  0.77735  0.89630  Biso   1.000  C
  C53      1.0000 0.62726  0.25186  0.87940  Biso   1.000  C
  C54      1.0000 0.76738  0.77735  0.28604  Biso   1.000  C
  C55      1.0000 0.60182  0.61179  0.45786  Biso   1.000  C
  C56      1.0000 0.67715  0.81034  0.31466  Biso   1.000  C
  C57      1.0000 0.80037  0.68712  0.31466  Biso   1.000  C
  C58      1.0000 0.15713  0.16710  0.89630  Biso   1.000  C
  C59      1.0000 0.15713  0.77735  0.28604  Biso   1.000  C
  C60      1.0000 0.24189  0.76046  0.75618  Biso   1.000  C
  C61      1.0000 0.24189  0.63723  0.37080  Biso   1.000  C
  C62      1.0000 0.09869  0.83578  0.22761  Biso   1.000  C
  C63      1.0000 0.82581  0.10866  0.95473  Biso   1.000  C
  C64      1.0000 0.60182  0.33891  0.45786  Biso   1.000  C
  C65      1.0000 0.82581  0.10866  0.22761  Biso   1.000  C
  C66      1.0000 0.82581  0.83578  0.22761  Biso   1.000  C
  C67      1.0000 0.75049  0.63723  0.37080  Biso   1.000  C
  C68      1.0000 0.80037  0.19572  0.31466  Biso   1.000  C
  C69      1.0000 0.32894  0.61179  0.45786  Biso   1.000  C
  C70      1.0000 0.67715  0.19572  0.31466  Biso   1.000  C
  C71      1.0000 0.24189  0.63723  0.87940  Biso   1.000  C
  C72      1.0000 0.09869  0.10866  0.95473  Biso   1.000  C
  C73      1.0000 0.67715  0.19572  0.92929  Biso   1.000  C
  C74      1.0000 0.60182  0.33891  0.73074  Biso   1.000  C
  C75      1.0000 0.27051  0.67022  0.39942  Biso   1.000  C
  C76      1.0000 0.62726  0.25186  0.37080  Biso   1.000  C
  C77      1.0000 0.18575  0.19572  0.80606  Biso   1.000  C
  C78      1.0000 0.09869  0.83578  0.95473  Biso   1.000  C
  C79      1.0000 0.75049  0.25186  0.75618  Biso   1.000  C
  C80      1.0000 0.18575  0.19572  0.92929  Biso   1.000  C
  C81      1.0000 0.66026  0.28048  0.78917  Biso   1.000  C
  C82      1.0000 0.24189  0.76046  0.37080  Biso   1.000  C
  C83      1.0000 0.24189  0.25186  0.75618  Biso   1.000  C
  C84      1.0000 0.32894  0.61179  0.73074  Biso   1.000  C
  C85      1.0000 0.24189  0.25186  0.87940  Biso   1.000  C
  C86      1.0000 0.18575  0.68712  0.92929  Biso   1.000  C
  C87      1.0000 0.18575  0.81034  0.80606  Biso   1.000  C
  C88      1.0000 0.76738  0.16710  0.28604  Biso   1.000  C
  C89      1.0000 0.18575  0.81034  0.31466  Biso   1.000  C
  C90      1.0000 0.66026  0.28048  0.39942  Biso   1.000  C
  C91      1.0000 0.27051  0.67022  0.78917  Biso   1.000  C
  C92      1.0000 0.32894  0.33891  0.73074  Biso   1.000  C
  C93      1.0000 0.27051  0.28048  0.78917  Biso   1.000  C
  C94      1.0000 0.76738  0.16710  0.89630  Biso   1.000  C
  C95      1.0000 0.80037  0.19572  0.80606  Biso   1.000  C
  C96      1.0000 0.66026  0.67022  0.39942  Biso   1.000  C
  O27      1.0000 0.34971  0.65401  0.47862  Biso   1.000  O
  O28      1.0000 0.34971  0.65401  0.64698  Biso   1.000  O
  O29      1.0000 0.07793  0.79357  0.20684  Biso   1.000  O
  O30      1.0000 0.51807  0.35968  0.77295  Biso   1.000  O
  O31      1.0000 0.34971  0.35968  0.77295  Biso   1.000  O
  O32      1.0000 0.07793  0.79357  0.03848  Biso   1.000  O
  O33      1.0000 0.90957  0.08789  0.91251  Biso   1.000  O
  O34      1.0000 0.07793  0.08789  0.91251  Biso   1.000  O
  O35      1.0000 0.34971  0.52804  0.47862  Biso   1.000  O
  O36      1.0000 0.64404  0.52804  0.47862  Biso   1.000  O
  O37      1.0000 0.07793  0.91953  0.20684  Biso   1.000  O
  O38      1.0000 0.34971  0.35968  0.64698  Biso   1.000  O
  O39      1.0000 0.90957  0.08789  0.20684  Biso   1.000  O
  O40      1.0000 0.78360  0.91953  0.20684  Biso   1.000  O
  O41      1.0000 0.78360  0.08789  0.20684  Biso   1.000  O
  O42      1.0000 0.34971  0.52804  0.77295  Biso   1.000  O
  O43      1.0000 0.46538  0.47535  0.59430  Biso   1.000  O
  O44      1.0000 0.51807  0.65401  0.47862  Biso   1.000  O
  O45      1.0000 0.90957  0.79357  0.20684  Biso   1.000  O
  O46      1.0000 0.78360  0.08789  0.03848  Biso   1.000  O
  O47      1.0000 0.64404  0.35968  0.47862  Biso   1.000  O
  O48      1.0000 0.07793  0.08789  0.03848  Biso   1.000  O
  O49      1.0000 0.96225  0.97222  0.09117  Biso   1.000  O
  O50      1.0000 0.51807  0.35968  0.47862  Biso   1.000  O
  O51      1.0000 0.07793  0.91953  0.91251  Biso   1.000  O
  O52      1.0000 0.64404  0.35968  0.64698  Biso   1.000  O
  H25      1.0000 0.55095  0.79252  0.39292  Biso   1.000  H
  H26      1.0000 0.16587  0.65109  0.29479  Biso   1.000  H
  H27      1.0000 0.78256  0.27398  0.39292  Biso   1.000  H
  H28      1.0000 0.55095  0.27398  0.91147  Biso   1.000  H
  H29      1.0000 0.64508  0.88665  0.29254  Biso   1.000  H
  H30      1.0000 0.87615  0.65109  0.29479  Biso   1.000  H
  H31      1.0000 0.26401  0.79252  0.67987  Biso   1.000  H
  H32      1.0000 0.26401  0.56092  0.39292  Biso   1.000  H
  H33      1.0000 0.78256  0.56092  0.39292  Biso   1.000  H
  H34      1.0000 0.87668  0.17359  0.29254  Biso   1.000  H
  H35      1.0000 0.64508  0.17359  0.29254  Biso   1.000  H
  H36      1.0000 0.26401  0.56092  0.91147  Biso   1.000  H
  H37      1.0000 0.64508  0.17359  0.00560  Biso   1.000  H
  H38      1.0000 0.55095  0.27398  0.39292  Biso   1.000  H
  H39      1.0000 0.16587  0.17584  0.77004  Biso   1.000  H
  H40      1.0000 0.78651  0.27173  0.68040  Biso   1.000  H
  H41      1.0000 0.16587  0.17584  0.00506  Biso   1.000  H
  H42      1.0000 0.26176  0.79648  0.39068  Biso   1.000  H
  H43      1.0000 0.26401  0.27398  0.67987  Biso   1.000  H
  H44      1.0000 0.26401  0.27398  0.91147  Biso   1.000  H
  H45      1.0000 0.16587  0.65109  0.00506  Biso   1.000  H
  H46      1.0000 0.16587  0.88611  0.77004  Biso   1.000  H
  H47      1.0000 0.16587  0.88611  0.29479  Biso   1.000  H
