data_image0
_cell_length_a       18.2455
_cell_length_b       18.2455
_cell_length_c       18.2455
_cell_angle_alpha    60
_cell_angle_beta     60
_cell_angle_gamma    60

_symmetry_space_group_name_H-M    "P 1"
_symmetry_int_tables_number       1

loop_
  _symmetry_equiv_pos_as_xyz
  'x, y, z'

loop_
  _atom_site_label
  _atom_site_occupancy
  _atom_site_fract_x
  _atom_site_fract_y
  _atom_site_fract_z
  _atom_site_thermal_displace_type
  _atom_site_B_iso_or_equiv
  _atom_site_type_symbol
  C1       1.0000 0.29354  0.29354  0.11938  Biso   1.000  C
  C2       1.0000 0.29354  0.29354  0.29354  Biso   1.000  C
  C3       1.0000 0.11938  0.29354  0.29354  Biso   1.000  C
  C4       1.0000 0.29354  0.11938  0.29354  Biso   1.000  C
  C5       1.0000 0.70646  0.70646  0.88062  Biso   1.000  C
  C6       1.0000 0.70646  0.70646  0.70646  Biso   1.000  C
  C7       1.0000 0.70646  0.88062  0.70646  Biso   1.000  C
  C8       1.0000 0.88062  0.70646  0.70646  Biso   1.000  C
  C9       1.0000 0.45580  0.45580  0.93620  Biso   1.000  C
  C10      1.0000 0.45580  0.45580  0.15220  Biso   1.000  C
  C11      1.0000 0.93620  0.15220  0.45580  Biso   1.000  C
  C12      1.0000 0.15220  0.93620  0.45580  Biso   1.000  C
  C13      1.0000 0.45580  0.93620  0.15220  Biso   1.000  C
  C14      1.0000 0.45580  0.15220  0.93620  Biso   1.000  C
  C15      1.0000 0.93620  0.45580  0.45580  Biso   1.000  C
  C16      1.0000 0.15220  0.45580  0.45580  Biso   1.000  C
  C17      1.0000 0.45580  0.15220  0.45580  Biso   1.000  C
  C18      1.0000 0.45580  0.93620  0.45580  Biso   1.000  C
  C19      1.0000 0.93620  0.45580  0.15220  Biso   1.000  C
  C20      1.0000 0.15220  0.45580  0.93620  Biso   1.000  C
  C21      1.0000 0.54420  0.54420  0.06380  Biso   1.000  C
  C22      1.0000 0.54420  0.54420  0.84780  Biso   1.000  C
  C23      1.0000 0.84780  0.06380  0.54420  Biso   1.000  C
  C24      1.0000 0.06380  0.84780  0.54420  Biso   1.000  C
  C25      1.0000 0.06380  0.54420  0.84780  Biso   1.000  C
  C26      1.0000 0.84780  0.54420  0.06380  Biso   1.000  C
  C27      1.0000 0.54420  0.06380  0.54420  Biso   1.000  C
  C28      1.0000 0.54420  0.84780  0.54420  Biso   1.000  C
  C29      1.0000 0.84780  0.54420  0.54420  Biso   1.000  C
  C30      1.0000 0.06380  0.54420  0.54420  Biso   1.000  C
  C31      1.0000 0.54420  0.06380  0.84780  Biso   1.000  C
  C32      1.0000 0.54420  0.84780  0.06380  Biso   1.000  C
  C33      1.0000 0.47345  0.47345  0.96303  Biso   1.000  C
  C34      1.0000 0.47345  0.47345  0.09007  Biso   1.000  C
  C35      1.0000 0.96303  0.09007  0.47345  Biso   1.000  C
  C36      1.0000 0.09007  0.96303  0.47345  Biso   1.000  C
  C37      1.0000 0.47345  0.96303  0.09007  Biso   1.000  C
  C38      1.0000 0.47345  0.09007  0.96303  Biso   1.000  C
  C39      1.0000 0.96303  0.47345  0.47345  Biso   1.000  C
  C40      1.0000 0.09007  0.47345  0.47345  Biso   1.000  C
  C41      1.0000 0.47345  0.09007  0.47345  Biso   1.000  C
  C42      1.0000 0.47345  0.96303  0.47345  Biso   1.000  C
  C43      1.0000 0.96303  0.47345  0.09007  Biso   1.000  C
  C44      1.0000 0.09007  0.47345  0.96303  Biso   1.000  C
  C45      1.0000 0.52655  0.52655  0.03697  Biso   1.000  C
  C46      1.0000 0.52655  0.52655  0.90993  Biso   1.000  C
  C47      1.0000 0.90993  0.03697  0.52655  Biso   1.000  C
  C48      1.0000 0.03697  0.90993  0.52655  Biso   1.000  C
  C49      1.0000 0.03697  0.52655  0.90993  Biso   1.000  C
  C50      1.0000 0.90993  0.52655  0.03697  Biso   1.000  C
  C51      1.0000 0.52655  0.03697  0.52655  Biso   1.000  C
  C52      1.0000 0.52655  0.90993  0.52655  Biso   1.000  C
  C53      1.0000 0.90993  0.52655  0.52655  Biso   1.000  C
  C54      1.0000 0.03697  0.52655  0.52655  Biso   1.000  C
  C55      1.0000 0.52655  0.03697  0.90993  Biso   1.000  C
  C56      1.0000 0.52655  0.90993  0.03697  Biso   1.000  C
  C57      1.0000 0.38857  0.38857  0.11143  Biso   1.000  C
  C58      1.0000 0.44620  0.44620  0.05380  Biso   1.000  C
  C59      1.0000 0.11143  0.11143  0.38857  Biso   1.000  C
  C60      1.0000 0.05380  0.05380  0.44620  Biso   1.000  C
  C61      1.0000 0.38857  0.11143  0.11143  Biso   1.000  C
  C62      1.0000 0.44620  0.05380  0.05380  Biso   1.000  C
  C63      1.0000 0.11143  0.38857  0.38857  Biso   1.000  C
  C64      1.0000 0.05380  0.44620  0.44620  Biso   1.000  C
  C65      1.0000 0.38857  0.11143  0.38857  Biso   1.000  C
  C66      1.0000 0.44620  0.05380  0.44620  Biso   1.000  C
  C67      1.0000 0.11143  0.38857  0.11143  Biso   1.000  C
  C68      1.0000 0.05380  0.44620  0.05380  Biso   1.000  C
  C69      1.0000 0.61143  0.61143  0.88857  Biso   1.000  C
  C70      1.0000 0.55380  0.55380  0.94620  Biso   1.000  C
  C71      1.0000 0.88857  0.88857  0.61143  Biso   1.000  C
  C72      1.0000 0.94620  0.94620  0.55380  Biso   1.000  C
  C73      1.0000 0.88857  0.61143  0.88857  Biso   1.000  C
  C74      1.0000 0.94620  0.55380  0.94620  Biso   1.000  C
  C75      1.0000 0.61143  0.88857  0.61143  Biso   1.000  C
  C76      1.0000 0.55380  0.94620  0.55380  Biso   1.000  C
  C77      1.0000 0.88857  0.61143  0.61143  Biso   1.000  C
  C78      1.0000 0.94620  0.55380  0.55380  Biso   1.000  C
  C79      1.0000 0.61143  0.88857  0.88857  Biso   1.000  C
  C80      1.0000 0.55380  0.94620  0.94620  Biso   1.000  C
  C81      1.0000 0.25000  0.25000  0.25000  Biso   1.000  C
  C82      1.0000 0.75000  0.75000  0.75000  Biso   1.000  C
  C83      1.0000 0.36603  0.36603  0.07311  Biso   1.000  C
  C84      1.0000 0.36603  0.36603  0.19483  Biso   1.000  C
  C85      1.0000 0.07311  0.19483  0.36603  Biso   1.000  C
  C86      1.0000 0.19483  0.07311  0.36603  Biso   1.000  C
  C87      1.0000 0.36603  0.07311  0.19483  Biso   1.000  C
  C88      1.0000 0.36603  0.19483  0.07311  Biso   1.000  C
  C89      1.0000 0.07311  0.36603  0.36603  Biso   1.000  C
  C90      1.0000 0.19483  0.36603  0.36603  Biso   1.000  C
  C91      1.0000 0.36603  0.19483  0.36603  Biso   1.000  C
  C92      1.0000 0.36603  0.07311  0.36603  Biso   1.000  C
  C93      1.0000 0.07311  0.36603  0.19483  Biso   1.000  C
  C94      1.0000 0.19483  0.36603  0.07311  Biso   1.000  C
  C95      1.0000 0.63397  0.63397  0.92689  Biso   1.000  C
  C96      1.0000 0.63397  0.63397  0.80517  Biso   1.000  C
  C97      1.0000 0.80517  0.92689  0.63397  Biso   1.000  C
  C98      1.0000 0.92689  0.80517  0.63397  Biso   1.000  C
  C99      1.0000 0.92689  0.63397  0.80517  Biso   1.000  C
  C100     1.0000 0.80517  0.63397  0.92689  Biso   1.000  C
  C101     1.0000 0.63397  0.92689  0.63397  Biso   1.000  C
  C102     1.0000 0.63397  0.80517  0.63397  Biso   1.000  C
  C103     1.0000 0.80517  0.63397  0.63397  Biso   1.000  C
  C104     1.0000 0.92689  0.63397  0.63397  Biso   1.000  C
  C105     1.0000 0.63397  0.92689  0.80517  Biso   1.000  C
  C106     1.0000 0.63397  0.80517  0.92689  Biso   1.000  C
  O1       1.0000 0.00551  0.84127  0.13425  Biso   1.000  O
  O2       1.0000 0.00551  0.01537  0.13425  Biso   1.000  O
  O3       1.0000 0.83141  0.01537  0.13425  Biso   1.000  O
  O4       1.0000 0.00551  0.01537  0.96014  Biso   1.000  O
  O5       1.0000 0.42154  0.42729  0.54617  Biso   1.000  O
  O6       1.0000 0.42154  0.60139  0.54617  Biso   1.000  O
  O7       1.0000 0.59565  0.42729  0.54617  Biso   1.000  O
  O8       1.0000 0.42154  0.42729  0.72027  Biso   1.000  O
  O9       1.0000 0.86719  0.65580  0.29614  Biso   1.000  O
  O10      1.0000 0.16741  0.17726  0.99593  Biso   1.000  O
  O11      1.0000 0.64594  0.87705  0.29614  Biso   1.000  O
  O12      1.0000 0.16741  0.17726  0.77467  Biso   1.000  O
  O13      1.0000 0.64594  0.17726  0.99593  Biso   1.000  O
  O14      1.0000 0.16741  0.87705  0.29614  Biso   1.000  O
  O15      1.0000 0.86719  0.17726  0.77467  Biso   1.000  O
  O16      1.0000 0.16741  0.65580  0.29614  Biso   1.000  O
  O17      1.0000 0.16741  0.87705  0.77467  Biso   1.000  O
  O18      1.0000 0.86719  0.17726  0.29614  Biso   1.000  O
  O19      1.0000 0.16741  0.65580  0.99593  Biso   1.000  O
  O20      1.0000 0.64594  0.17726  0.29614  Biso   1.000  O
  O21      1.0000 0.55986  0.26539  0.38427  Biso   1.000  O
  O22      1.0000 0.25965  0.78686  0.68449  Biso   1.000  O
  O23      1.0000 0.78112  0.26539  0.38427  Biso   1.000  O
  O24      1.0000 0.25965  0.56561  0.90574  Biso   1.000  O
  O25      1.0000 0.78112  0.26539  0.68449  Biso   1.000  O
  O26      1.0000 0.25965  0.78686  0.38427  Biso   1.000  O
  O27      1.0000 0.55986  0.26539  0.90574  Biso   1.000  O
  O28      1.0000 0.25965  0.56561  0.38427  Biso   1.000  O
  O29      1.0000 0.25965  0.26539  0.90574  Biso   1.000  O
  O30      1.0000 0.55986  0.78686  0.38427  Biso   1.000  O
  O31      1.0000 0.25965  0.26539  0.68449  Biso   1.000  O
  O32      1.0000 0.78112  0.56561  0.38427  Biso   1.000  O
  O33      1.0000 0.80370  0.68261  0.31448  Biso   1.000  O
  O34      1.0000 0.18574  0.19560  0.93244  Biso   1.000  O
  O35      1.0000 0.67275  0.81356  0.31448  Biso   1.000  O
  O36      1.0000 0.18574  0.19560  0.80149  Biso   1.000  O
  O37      1.0000 0.67275  0.19560  0.93244  Biso   1.000  O
  O38      1.0000 0.18574  0.81356  0.31448  Biso   1.000  O
  O39      1.0000 0.80370  0.19560  0.80149  Biso   1.000  O
  O40      1.0000 0.18574  0.68261  0.31448  Biso   1.000  O
  O41      1.0000 0.18574  0.81356  0.80149  Biso   1.000  O
  O42      1.0000 0.80370  0.19560  0.31448  Biso   1.000  O
  O43      1.0000 0.18574  0.68261  0.93244  Biso   1.000  O
  O44      1.0000 0.67275  0.19560  0.31448  Biso   1.000  O
  O45      1.0000 0.62335  0.24706  0.36594  Biso   1.000  O
  O46      1.0000 0.24131  0.76005  0.74798  Biso   1.000  O
  O47      1.0000 0.75430  0.24706  0.36594  Biso   1.000  O
  O48      1.0000 0.24131  0.62910  0.87893  Biso   1.000  O
  O49      1.0000 0.75430  0.24706  0.74798  Biso   1.000  O
  O50      1.0000 0.24131  0.76005  0.36594  Biso   1.000  O
  O51      1.0000 0.62335  0.24706  0.87893  Biso   1.000  O
  O52      1.0000 0.24131  0.62910  0.36594  Biso   1.000  O
  O53      1.0000 0.24131  0.24706  0.87893  Biso   1.000  O
  O54      1.0000 0.62335  0.76005  0.36594  Biso   1.000  O
  O55      1.0000 0.24131  0.24706  0.74798  Biso   1.000  O
  O56      1.0000 0.75430  0.62910  0.36594  Biso   1.000  O
  O57      1.0000 0.82318  0.83304  0.22953  Biso   1.000  O
  O58      1.0000 0.76530  0.77516  0.28741  Biso   1.000  O
  O59      1.0000 0.10079  0.11065  0.95192  Biso   1.000  O
  O60      1.0000 0.15867  0.16853  0.89404  Biso   1.000  O
  O61      1.0000 0.82318  0.11065  0.95192  Biso   1.000  O
  O62      1.0000 0.76530  0.16853  0.89404  Biso   1.000  O
  O63      1.0000 0.10079  0.83304  0.22953  Biso   1.000  O
  O64      1.0000 0.15867  0.77516  0.28741  Biso   1.000  O
  O65      1.0000 0.10079  0.83304  0.95192  Biso   1.000  O
  O66      1.0000 0.15867  0.77516  0.89404  Biso   1.000  O
  O67      1.0000 0.82318  0.11065  0.22953  Biso   1.000  O
  O68      1.0000 0.76530  0.16853  0.28741  Biso   1.000  O
  O69      1.0000 0.60387  0.33201  0.45089  Biso   1.000  O
  O70      1.0000 0.66175  0.27413  0.39301  Biso   1.000  O
  O71      1.0000 0.32626  0.60962  0.72850  Biso   1.000  O
  O72      1.0000 0.26838  0.66750  0.78638  Biso   1.000  O
  O73      1.0000 0.60387  0.33201  0.72850  Biso   1.000  O
  O74      1.0000 0.66175  0.27413  0.78638  Biso   1.000  O
  O75      1.0000 0.32626  0.60962  0.45089  Biso   1.000  O
  O76      1.0000 0.26838  0.66750  0.39301  Biso   1.000  O
  O77      1.0000 0.32626  0.33201  0.72850  Biso   1.000  O
  O78      1.0000 0.26838  0.27413  0.78638  Biso   1.000  O
  O79      1.0000 0.60387  0.60962  0.45089  Biso   1.000  O
  O80      1.0000 0.66175  0.66750  0.39301  Biso   1.000  O
  O81      1.0000 0.96198  0.97184  0.09072  Biso   1.000  O
  O82      1.0000 0.46507  0.47082  0.58969  Biso   1.000  O
  O83      1.0000 0.90684  0.79397  0.20723  Biso   1.000  O
  O84      1.0000 0.07849  0.08835  0.03558  Biso   1.000  O
  O85      1.0000 0.78411  0.91670  0.20723  Biso   1.000  O
  O86      1.0000 0.07849  0.08835  0.91285  Biso   1.000  O
  O87      1.0000 0.78411  0.08835  0.03558  Biso   1.000  O
  O88      1.0000 0.07849  0.91670  0.20723  Biso   1.000  O
  O89      1.0000 0.90684  0.08835  0.91285  Biso   1.000  O
  O90      1.0000 0.07849  0.79397  0.20723  Biso   1.000  O
  O91      1.0000 0.07849  0.91670  0.91285  Biso   1.000  O
  O92      1.0000 0.90684  0.08835  0.20723  Biso   1.000  O
  O93      1.0000 0.07849  0.79397  0.03558  Biso   1.000  O
  O94      1.0000 0.78411  0.08835  0.20723  Biso   1.000  O
  O95      1.0000 0.52021  0.35431  0.47319  Biso   1.000  O
  O96      1.0000 0.34856  0.64869  0.64484  Biso   1.000  O
  O97      1.0000 0.64294  0.35431  0.47319  Biso   1.000  O
  O98      1.0000 0.34856  0.52596  0.76757  Biso   1.000  O
  O99      1.0000 0.64294  0.35431  0.64484  Biso   1.000  O
  O100     1.0000 0.34856  0.64869  0.47319  Biso   1.000  O
  O101     1.0000 0.52021  0.35431  0.76757  Biso   1.000  O
  O102     1.0000 0.34856  0.52596  0.47319  Biso   1.000  O
  O103     1.0000 0.34856  0.35431  0.76757  Biso   1.000  O
  O104     1.0000 0.52021  0.64869  0.47319  Biso   1.000  O
  O105     1.0000 0.34856  0.35431  0.64484  Biso   1.000  O
