data_image0
_cell_length_a       18.2455
_cell_length_b       18.2455
_cell_length_c       18.2455
_cell_angle_alpha    60
_cell_angle_beta     60
_cell_angle_gamma    60

_symmetry_space_group_name_H-M    "P 1"
_symmetry_int_tables_number       1

loop_
  _symmetry_equiv_pos_as_xyz
  'x, y, z'

loop_
  _atom_site_label
  _atom_site_occupancy
  _atom_site_fract_x
  _atom_site_fract_y
  _atom_site_fract_z
  _atom_site_thermal_displace_type
  _atom_site_B_iso_or_equiv
  _atom_site_type_symbol
  Zn1      1.0000 0.29354  0.29354  0.11938  Biso   1.000  Zn
  Zn2      1.0000 0.29354  0.29354  0.29354  Biso   1.000  Zn
  Zn3      1.0000 0.11938  0.29354  0.29354  Biso   1.000  Zn
  Zn4      1.0000 0.29354  0.11938  0.29354  Biso   1.000  Zn
  Zn5      1.0000 0.70646  0.70646  0.88062  Biso   1.000  Zn
  Zn6      1.0000 0.70646  0.70646  0.70646  Biso   1.000  Zn
  Zn7      1.0000 0.70646  0.88062  0.70646  Biso   1.000  Zn
  Zn8      1.0000 0.88062  0.70646  0.70646  Biso   1.000  Zn
  H1       1.0000 0.45580  0.45580  0.93620  Biso   1.000  H
  H2       1.0000 0.45580  0.45580  0.15220  Biso   1.000  H
  H3       1.0000 0.93620  0.15220  0.45580  Biso   1.000  H
  H4       1.0000 0.15220  0.93620  0.45580  Biso   1.000  H
  H5       1.0000 0.45580  0.93620  0.15220  Biso   1.000  H
  H6       1.0000 0.45580  0.15220  0.93620  Biso   1.000  H
  H7       1.0000 0.93620  0.45580  0.45580  Biso   1.000  H
  H8       1.0000 0.15220  0.45580  0.45580  Biso   1.000  H
  H9       1.0000 0.45580  0.15220  0.45580  Biso   1.000  H
  H10      1.0000 0.45580  0.93620  0.45580  Biso   1.000  H
  H11      1.0000 0.93620  0.45580  0.15220  Biso   1.000  H
  H12      1.0000 0.15220  0.45580  0.93620  Biso   1.000  H
  H13      1.0000 0.54420  0.54420  0.06380  Biso   1.000  H
  H14      1.0000 0.54420  0.54420  0.84780  Biso   1.000  H
  H15      1.0000 0.84780  0.06380  0.54420  Biso   1.000  H
  H16      1.0000 0.06380  0.84780  0.54420  Biso   1.000  H
  H17      1.0000 0.06380  0.54420  0.84780  Biso   1.000  H
  H18      1.0000 0.84780  0.54420  0.06380  Biso   1.000  H
  H19      1.0000 0.54420  0.06380  0.54420  Biso   1.000  H
  H20      1.0000 0.54420  0.84780  0.54420  Biso   1.000  H
  H21      1.0000 0.84780  0.54420  0.54420  Biso   1.000  H
  H22      1.0000 0.06380  0.54420  0.54420  Biso   1.000  H
  H23      1.0000 0.54420  0.06380  0.84780  Biso   1.000  H
  H24      1.0000 0.54420  0.84780  0.06380  Biso   1.000  H
  C1       1.0000 0.47345  0.47345  0.96303  Biso   1.000  C
  C2       1.0000 0.47345  0.47345  0.09007  Biso   1.000  C
  C3       1.0000 0.96303  0.09007  0.47345  Biso   1.000  C
  C4       1.0000 0.09007  0.96303  0.47345  Biso   1.000  C
  C5       1.0000 0.47345  0.96303  0.09007  Biso   1.000  C
  C6       1.0000 0.47345  0.09007  0.96303  Biso   1.000  C
  C7       1.0000 0.96303  0.47345  0.47345  Biso   1.000  C
  C8       1.0000 0.09007  0.47345  0.47345  Biso   1.000  C
  C9       1.0000 0.47345  0.09007  0.47345  Biso   1.000  C
  C10      1.0000 0.47345  0.96303  0.47345  Biso   1.000  C
  C11      1.0000 0.96303  0.47345  0.09007  Biso   1.000  C
  C12      1.0000 0.09007  0.47345  0.96303  Biso   1.000  C
  C13      1.0000 0.52655  0.52655  0.03697  Biso   1.000  C
  C14      1.0000 0.52655  0.52655  0.90993  Biso   1.000  C
  C15      1.0000 0.90993  0.03697  0.52655  Biso   1.000  C
  C16      1.0000 0.03697  0.90993  0.52655  Biso   1.000  C
  C17      1.0000 0.03697  0.52655  0.90993  Biso   1.000  C
  C18      1.0000 0.90993  0.52655  0.03697  Biso   1.000  C
  C19      1.0000 0.52655  0.03697  0.52655  Biso   1.000  C
  C20      1.0000 0.52655  0.90993  0.52655  Biso   1.000  C
  C21      1.0000 0.90993  0.52655  0.52655  Biso   1.000  C
  C22      1.0000 0.03697  0.52655  0.52655  Biso   1.000  C
  C23      1.0000 0.52655  0.03697  0.90993  Biso   1.000  C
  C24      1.0000 0.52655  0.90993  0.03697  Biso   1.000  C
  C25      1.0000 0.38857  0.38857  0.11143  Biso   1.000  C
  C26      1.0000 0.44620  0.44620  0.05380  Biso   1.000  C
  C27      1.0000 0.11143  0.11143  0.38857  Biso   1.000  C
  C28      1.0000 0.05380  0.05380  0.44620  Biso   1.000  C
  C29      1.0000 0.38857  0.11143  0.11143  Biso   1.000  C
  C30      1.0000 0.44620  0.05380  0.05380  Biso   1.000  C
  C31      1.0000 0.11143  0.38857  0.38857  Biso   1.000  C
  C32      1.0000 0.05380  0.44620  0.44620  Biso   1.000  C
  C33      1.0000 0.38857  0.11143  0.38857  Biso   1.000  C
  C34      1.0000 0.44620  0.05380  0.44620  Biso   1.000  C
  C35      1.0000 0.11143  0.38857  0.11143  Biso   1.000  C
  C36      1.0000 0.05380  0.44620  0.05380  Biso   1.000  C
  C37      1.0000 0.61143  0.61143  0.88857  Biso   1.000  C
  C38      1.0000 0.55380  0.55380  0.94620  Biso   1.000  C
  C39      1.0000 0.88857  0.88857  0.61143  Biso   1.000  C
  C40      1.0000 0.94620  0.94620  0.55380  Biso   1.000  C
  C41      1.0000 0.88857  0.61143  0.88857  Biso   1.000  C
  C42      1.0000 0.94620  0.55380  0.94620  Biso   1.000  C
  C43      1.0000 0.61143  0.88857  0.61143  Biso   1.000  C
  C44      1.0000 0.55380  0.94620  0.55380  Biso   1.000  C
  C45      1.0000 0.88857  0.61143  0.61143  Biso   1.000  C
  C46      1.0000 0.94620  0.55380  0.55380  Biso   1.000  C
  C47      1.0000 0.61143  0.88857  0.88857  Biso   1.000  C
  C48      1.0000 0.55380  0.94620  0.94620  Biso   1.000  C
  O1       1.0000 0.25000  0.25000  0.25000  Biso   1.000  O
  O2       1.0000 0.75000  0.75000  0.75000  Biso   1.000  O
  O3       1.0000 0.36603  0.36603  0.07311  Biso   1.000  O
  O4       1.0000 0.36603  0.36603  0.19483  Biso   1.000  O
  O5       1.0000 0.07311  0.19483  0.36603  Biso   1.000  O
  O6       1.0000 0.19483  0.07311  0.36603  Biso   1.000  O
  O7       1.0000 0.36603  0.07311  0.19483  Biso   1.000  O
  O8       1.0000 0.36603  0.19483  0.07311  Biso   1.000  O
  O9       1.0000 0.07311  0.36603  0.36603  Biso   1.000  O
  O10      1.0000 0.19483  0.36603  0.36603  Biso   1.000  O
  O11      1.0000 0.36603  0.19483  0.36603  Biso   1.000  O
  O12      1.0000 0.36603  0.07311  0.36603  Biso   1.000  O
  O13      1.0000 0.07311  0.36603  0.19483  Biso   1.000  O
  O14      1.0000 0.19483  0.36603  0.07311  Biso   1.000  O
  O15      1.0000 0.63397  0.63397  0.92689  Biso   1.000  O
  O16      1.0000 0.63397  0.63397  0.80517  Biso   1.000  O
  O17      1.0000 0.80517  0.92689  0.63397  Biso   1.000  O
  O18      1.0000 0.92689  0.80517  0.63397  Biso   1.000  O
  O19      1.0000 0.92689  0.63397  0.80517  Biso   1.000  O
  O20      1.0000 0.80517  0.63397  0.92689  Biso   1.000  O
  O21      1.0000 0.63397  0.92689  0.63397  Biso   1.000  O
  O22      1.0000 0.63397  0.80517  0.63397  Biso   1.000  O
  O23      1.0000 0.80517  0.63397  0.63397  Biso   1.000  O
  O24      1.0000 0.92689  0.63397  0.63397  Biso   1.000  O
  O25      1.0000 0.63397  0.92689  0.80517  Biso   1.000  O
  O26      1.0000 0.63397  0.80517  0.92689  Biso   1.000  O
  Zn9      1.0000 0.00000  0.00000  0.00000  Biso   1.000  Zn
  Zn10     1.0000 0.57481  0.41717  0.59084  Biso   1.000  Zn
  Zn11     1.0000 0.57481  0.59099  0.59084  Biso   1.000  Zn
  Zn12     1.0000 0.00000  0.17381  0.00000  Biso   1.000  Zn
  Zn13     1.0000 0.99996  0.99992  0.17401  Biso   1.000  Zn
  Zn14     1.0000 0.17358  0.00018  0.99987  Biso   1.000  Zn
  Zn15     1.0000 0.57485  0.59107  0.41683  Biso   1.000  Zn
  Zn16     1.0000 0.40122  0.59081  0.59097  Biso   1.000  Zn
  H25      1.0000 0.82746  0.84314  0.36523  Biso   1.000  H
  H26      1.0000 0.82651  0.84468  0.13652  Biso   1.000  H
  H27      1.0000 0.82362  0.13657  0.84552  Biso   1.000  H
  H28      1.0000 0.74735  0.45300  0.22561  Biso   1.000  H
  H29      1.0000 0.74830  0.22488  0.45433  Biso   1.000  H
  H30      1.0000 0.75119  0.22288  0.74532  Biso   1.000  H
  H31      1.0000 0.74735  0.74785  0.22561  Biso   1.000  H
  H32      1.0000 0.74830  0.74630  0.45433  Biso   1.000  H
  H33      1.0000 0.75119  0.45442  0.74532  Biso   1.000  H
  H34      1.0000 0.82746  0.13798  0.36523  Biso   1.000  H
  H35      1.0000 0.82651  0.36610  0.13652  Biso   1.000  H
  H36      1.0000 0.82362  0.36810  0.84552  Biso   1.000  H
  C49      1.0000 0.91271  0.91174  0.17848  Biso   1.000  C
  C50      1.0000 0.84862  0.84716  0.23781  Biso   1.000  C
  C51      1.0000 0.81178  0.82171  0.33884  Biso   1.000  C
  C52      1.0000 0.81183  0.82315  0.19982  Biso   1.000  C
  C53      1.0000 0.17450  0.91235  0.91249  Biso   1.000  C
  C54      1.0000 0.81022  0.19977  0.82181  Biso   1.000  C
  C55      1.0000 0.66210  0.42011  0.41236  Biso   1.000  C
  C56      1.0000 0.72618  0.35077  0.35303  Biso   1.000  C
  C57      1.0000 0.76302  0.38951  0.25200  Biso   1.000  C
  C58      1.0000 0.76298  0.25197  0.39103  Biso   1.000  C
  C59      1.0000 0.40030  0.41652  0.67835  Biso   1.000  C
  C60      1.0000 0.76458  0.24898  0.76903  Biso   1.000  C
  C61      1.0000 0.66210  0.67924  0.41236  Biso   1.000  C
  C62      1.0000 0.72618  0.74383  0.35303  Biso   1.000  C
  C63      1.0000 0.76302  0.76928  0.25200  Biso   1.000  C
  C64      1.0000 0.76298  0.76784  0.39103  Biso   1.000  C
  C65      1.0000 0.40030  0.67863  0.67835  Biso   1.000  C
  C66      1.0000 0.76458  0.39122  0.76903  Biso   1.000  C
  C67      1.0000 0.91271  0.17088  0.17848  Biso   1.000  C
  C68      1.0000 0.84862  0.24022  0.23781  Biso   1.000  C
  C69      1.0000 0.81178  0.20148  0.33884  Biso   1.000  C
  C70      1.0000 0.81183  0.33902  0.19982  Biso   1.000  C
  C71      1.0000 0.17450  0.17446  0.91249  Biso   1.000  C
  C72      1.0000 0.81022  0.34201  0.82181  Biso   1.000  C
  C73      1.0000 0.17253  0.91145  0.17839  Biso   1.000  C
  C74      1.0000 0.90932  0.17555  0.91339  Biso   1.000  C
  C75      1.0000 0.84840  0.24044  0.84453  Biso   1.000  C
  C76      1.0000 0.40227  0.67954  0.41246  Biso   1.000  C
  C77      1.0000 0.66549  0.41543  0.67746  Biso   1.000  C
  C78      1.0000 0.72640  0.35055  0.74631  Biso   1.000  C
  O27      1.0000 0.93017  0.92801  0.22234  Biso   1.000  O
  O28      1.0000 0.92818  0.92723  0.09574  Biso   1.000  O
  O29      1.0000 0.22371  0.92783  0.92876  Biso   1.000  O
  O30      1.0000 0.09345  0.92763  0.92867  Biso   1.000  O
  O31      1.0000 0.92896  0.09400  0.92708  Biso   1.000  O
  O32      1.0000 0.64464  0.49769  0.36851  Biso   1.000  O
  O33      1.0000 0.64663  0.36832  0.49510  Biso   1.000  O
  O34      1.0000 0.35110  0.49748  0.66208  Biso   1.000  O
  O35      1.0000 0.48136  0.36692  0.66218  Biso   1.000  O
  O36      1.0000 0.64584  0.36722  0.66377  Biso   1.000  O
  O37      1.0000 0.64464  0.66297  0.36851  Biso   1.000  O
  O38      1.0000 0.64663  0.66376  0.49510  Biso   1.000  O
  O39      1.0000 0.35110  0.66316  0.66208  Biso   1.000  O
  O40      1.0000 0.48136  0.66336  0.66218  Biso   1.000  O
  O41      1.0000 0.64584  0.49698  0.66377  Biso   1.000  O
  O42      1.0000 0.93017  0.09329  0.22234  Biso   1.000  O
  O43      1.0000 0.92818  0.22267  0.09574  Biso   1.000  O
  O44      1.0000 0.22371  0.09351  0.92876  Biso   1.000  O
  O45      1.0000 0.09345  0.22407  0.92867  Biso   1.000  O
  O46      1.0000 0.92896  0.22377  0.92708  Biso   1.000  O
  O47      1.0000 0.04197  0.04479  0.04226  Biso   1.000  O
  O48      1.0000 0.09376  0.92811  0.22383  Biso   1.000  O
  O49      1.0000 0.22342  0.92822  0.09396  Biso   1.000  O
  O50      1.0000 0.53284  0.54620  0.54858  Biso   1.000  O
  O51      1.0000 0.48104  0.66288  0.36702  Biso   1.000  O
