data_image0
_cell_length_a       18.3083
_cell_length_b       18.3083
_cell_length_c       18.3083
_cell_angle_alpha    60
_cell_angle_beta     60
_cell_angle_gamma    60

_symmetry_space_group_name_H-M    "P 1"
_symmetry_int_tables_number       1

loop_
  _symmetry_equiv_pos_as_xyz
  'x, y, z'

loop_
  _atom_site_label
  _atom_site_occupancy
  _atom_site_fract_x
  _atom_site_fract_y
  _atom_site_fract_z
  _atom_site_thermal_displace_type
  _atom_site_B_iso_or_equiv
  _atom_site_type_symbol
  Zn1      1.0000 0.29342  0.29341  0.11976  Biso   1.000  Zn
  Zn2      1.0000 0.29342  0.29341  0.29341  Biso   1.000  Zn
  Zn3      1.0000 0.11977  0.29341  0.29341  Biso   1.000  Zn
  Zn4      1.0000 0.29342  0.11976  0.29341  Biso   1.000  Zn
  Zn5      1.0000 0.70658  0.70659  0.88024  Biso   1.000  Zn
  Zn6      1.0000 0.70658  0.70659  0.70659  Biso   1.000  Zn
  Zn7      1.0000 0.70658  0.88024  0.70659  Biso   1.000  Zn
  Zn8      1.0000 0.88023  0.70659  0.70659  Biso   1.000  Zn
  H1       1.0000 0.45480  0.45480  0.93480  Biso   1.000  H
  H2       1.0000 0.45480  0.45480  0.15560  Biso   1.000  H
  H3       1.0000 0.93480  0.15560  0.45480  Biso   1.000  H
  H4       1.0000 0.15560  0.93480  0.45480  Biso   1.000  H
  H5       1.0000 0.45480  0.93480  0.15560  Biso   1.000  H
  H6       1.0000 0.45480  0.15560  0.93480  Biso   1.000  H
  H7       1.0000 0.93480  0.45480  0.45480  Biso   1.000  H
  H8       1.0000 0.15560  0.45480  0.45480  Biso   1.000  H
  H9       1.0000 0.45480  0.15560  0.45480  Biso   1.000  H
  H10      1.0000 0.45480  0.93480  0.45480  Biso   1.000  H
  H11      1.0000 0.93480  0.45480  0.15560  Biso   1.000  H
  H12      1.0000 0.15560  0.45480  0.93480  Biso   1.000  H
  H13      1.0000 0.54520  0.54520  0.06520  Biso   1.000  H
  H14      1.0000 0.54520  0.54520  0.84440  Biso   1.000  H
  H15      1.0000 0.84440  0.06520  0.54520  Biso   1.000  H
  H16      1.0000 0.06520  0.84440  0.54520  Biso   1.000  H
  H17      1.0000 0.06520  0.54520  0.84440  Biso   1.000  H
  H18      1.0000 0.84440  0.54520  0.06520  Biso   1.000  H
  H19      1.0000 0.54520  0.06520  0.54520  Biso   1.000  H
  H20      1.0000 0.54520  0.84440  0.54520  Biso   1.000  H
  H21      1.0000 0.84440  0.54520  0.54520  Biso   1.000  H
  H22      1.0000 0.06520  0.54520  0.54520  Biso   1.000  H
  H23      1.0000 0.54520  0.06520  0.84440  Biso   1.000  H
  H24      1.0000 0.54520  0.84440  0.06520  Biso   1.000  H
  C1       1.0000 0.47317  0.47317  0.96131  Biso   1.000  C
  C2       1.0000 0.47317  0.47317  0.09235  Biso   1.000  C
  C3       1.0000 0.96131  0.09235  0.47317  Biso   1.000  C
  C4       1.0000 0.09235  0.96131  0.47317  Biso   1.000  C
  C5       1.0000 0.47317  0.96131  0.09235  Biso   1.000  C
  C6       1.0000 0.47317  0.09235  0.96131  Biso   1.000  C
  C7       1.0000 0.96131  0.47317  0.47317  Biso   1.000  C
  C8       1.0000 0.09235  0.47317  0.47317  Biso   1.000  C
  C9       1.0000 0.47317  0.09235  0.47317  Biso   1.000  C
  C10      1.0000 0.47317  0.96131  0.47317  Biso   1.000  C
  C11      1.0000 0.96131  0.47317  0.09235  Biso   1.000  C
  C12      1.0000 0.09235  0.47317  0.96131  Biso   1.000  C
  C13      1.0000 0.52683  0.52683  0.03869  Biso   1.000  C
  C14      1.0000 0.52683  0.52683  0.90765  Biso   1.000  C
  C15      1.0000 0.90765  0.03869  0.52683  Biso   1.000  C
  C16      1.0000 0.03869  0.90765  0.52683  Biso   1.000  C
  C17      1.0000 0.03869  0.52683  0.90765  Biso   1.000  C
  C18      1.0000 0.90765  0.52683  0.03869  Biso   1.000  C
  C19      1.0000 0.52683  0.03869  0.52683  Biso   1.000  C
  C20      1.0000 0.52683  0.90765  0.52683  Biso   1.000  C
  C21      1.0000 0.90765  0.52683  0.52683  Biso   1.000  C
  C22      1.0000 0.03869  0.52683  0.52683  Biso   1.000  C
  C23      1.0000 0.52683  0.03869  0.90765  Biso   1.000  C
  C24      1.0000 0.52683  0.90765  0.03869  Biso   1.000  C
  C25      1.0000 0.38843  0.38843  0.11157  Biso   1.000  C
  C26      1.0000 0.44641  0.44641  0.05359  Biso   1.000  C
  C27      1.0000 0.11157  0.11157  0.38843  Biso   1.000  C
  C28      1.0000 0.05359  0.05359  0.44641  Biso   1.000  C
  C29      1.0000 0.38843  0.11157  0.11157  Biso   1.000  C
  C30      1.0000 0.44641  0.05359  0.05359  Biso   1.000  C
  C31      1.0000 0.11157  0.38843  0.38843  Biso   1.000  C
  C32      1.0000 0.05359  0.44641  0.44641  Biso   1.000  C
  C33      1.0000 0.38843  0.11157  0.38843  Biso   1.000  C
  C34      1.0000 0.44641  0.05359  0.44641  Biso   1.000  C
  C35      1.0000 0.11157  0.38843  0.11157  Biso   1.000  C
  C36      1.0000 0.05359  0.44641  0.05359  Biso   1.000  C
  C37      1.0000 0.61157  0.61157  0.88843  Biso   1.000  C
  C38      1.0000 0.55359  0.55359  0.94641  Biso   1.000  C
  C39      1.0000 0.88843  0.88843  0.61157  Biso   1.000  C
  C40      1.0000 0.94641  0.94641  0.55359  Biso   1.000  C
  C41      1.0000 0.88843  0.61157  0.88843  Biso   1.000  C
  C42      1.0000 0.94641  0.55359  0.94641  Biso   1.000  C
  C43      1.0000 0.61157  0.88843  0.61157  Biso   1.000  C
  C44      1.0000 0.55359  0.94641  0.55359  Biso   1.000  C
  C45      1.0000 0.88843  0.61157  0.61157  Biso   1.000  C
  C46      1.0000 0.94641  0.55359  0.55359  Biso   1.000  C
  C47      1.0000 0.61157  0.88843  0.88843  Biso   1.000  C
  C48      1.0000 0.55359  0.94641  0.94641  Biso   1.000  C
  O1       1.0000 0.25000  0.25000  0.25000  Biso   1.000  O
  O2       1.0000 0.75000  0.75000  0.75000  Biso   1.000  O
  O3       1.0000 0.36629  0.36629  0.07237  Biso   1.000  O
  O4       1.0000 0.36629  0.36629  0.19505  Biso   1.000  O
  O5       1.0000 0.07237  0.19505  0.36629  Biso   1.000  O
  O6       1.0000 0.19505  0.07237  0.36629  Biso   1.000  O
  O7       1.0000 0.36629  0.07237  0.19505  Biso   1.000  O
  O8       1.0000 0.36629  0.19505  0.07237  Biso   1.000  O
  O9       1.0000 0.07237  0.36629  0.36629  Biso   1.000  O
  O10      1.0000 0.19505  0.36629  0.36629  Biso   1.000  O
  O11      1.0000 0.36629  0.19505  0.36629  Biso   1.000  O
  O12      1.0000 0.36629  0.07237  0.36629  Biso   1.000  O
  O13      1.0000 0.07237  0.36629  0.19505  Biso   1.000  O
  O14      1.0000 0.19505  0.36629  0.07237  Biso   1.000  O
  O15      1.0000 0.63371  0.63371  0.92763  Biso   1.000  O
  O16      1.0000 0.63371  0.63371  0.80495  Biso   1.000  O
  O17      1.0000 0.80495  0.92763  0.63371  Biso   1.000  O
  O18      1.0000 0.92763  0.80495  0.63371  Biso   1.000  O
  O19      1.0000 0.92763  0.63371  0.80495  Biso   1.000  O
  O20      1.0000 0.80495  0.63371  0.92763  Biso   1.000  O
  O21      1.0000 0.63371  0.92763  0.63371  Biso   1.000  O
  O22      1.0000 0.63371  0.80495  0.63371  Biso   1.000  O
  O23      1.0000 0.80495  0.63371  0.63371  Biso   1.000  O
  O24      1.0000 0.92763  0.63371  0.63371  Biso   1.000  O
  O25      1.0000 0.63371  0.92763  0.80495  Biso   1.000  O
  O26      1.0000 0.63371  0.80495  0.92763  Biso   1.000  O
  Zn9      1.0000 0.17182  0.97151  0.86964  Biso   1.000  Zn
  Zn10     1.0000 0.58620  0.38589  0.45525  Biso   1.000  Zn
  Zn11     1.0000 0.41238  0.55971  0.45525  Biso   1.000  Zn
  Zn12     1.0000 0.99800  0.14534  0.86964  Biso   1.000  Zn
  Zn13     1.0000 0.99780  0.97132  0.04361  Biso   1.000  Zn
  Zn14     1.0000 0.99793  0.97144  0.86943  Biso   1.000  Zn
  Zn15     1.0000 0.58640  0.55991  0.28129  Biso   1.000  Zn
  Zn16     1.0000 0.58627  0.55978  0.45546  Biso   1.000  Zn
  H25      1.0000 0.83578  0.33076  0.01061  Biso   1.000  H
  H26      1.0000 0.83267  0.11224  0.22386  Biso   1.000  H
  H27      1.0000 0.83938  0.32879  0.70902  Biso   1.000  H
  H28      1.0000 0.83888  0.11107  0.70374  Biso   1.000  H
  H29      1.0000 0.35637  0.11167  0.71081  Biso   1.000  H
  H30      1.0000 0.22695  0.72194  0.31429  Biso   1.000  H
  H31      1.0000 0.44548  0.72504  0.10103  Biso   1.000  H
  H32      1.0000 0.22893  0.71834  0.61587  Biso   1.000  H
  H33      1.0000 0.44664  0.71883  0.62116  Biso   1.000  H
  H34      1.0000 0.44604  0.20135  0.61408  Biso   1.000  H
  H35      1.0000 0.74842  0.20047  0.31429  Biso   1.000  H
  H36      1.0000 0.75153  0.41899  0.10103  Biso   1.000  H
  H37      1.0000 0.74482  0.20244  0.61587  Biso   1.000  H
  H38      1.0000 0.74532  0.42016  0.62116  Biso   1.000  H
  H39      1.0000 0.22783  0.41956  0.61408  Biso   1.000  H
  H40      1.0000 0.35725  0.80929  0.01061  Biso   1.000  H
  H41      1.0000 0.13873  0.80619  0.22386  Biso   1.000  H
  H42      1.0000 0.35528  0.81289  0.70902  Biso   1.000  H
  H43      1.0000 0.13756  0.81239  0.70374  Biso   1.000  H
  H44      1.0000 0.13816  0.32988  0.71081  Biso   1.000  H
  H45      1.0000 0.83707  0.81058  0.00991  Biso   1.000  H
  H46      1.0000 0.83437  0.80788  0.22775  Biso   1.000  H
  H47      1.0000 0.74713  0.72065  0.31498  Biso   1.000  H
  H48      1.0000 0.74984  0.72335  0.09714  Biso   1.000  H
  C49      1.0000 0.90356  0.15502  0.04919  Biso   1.000  C
  C50      1.0000 0.84494  0.21184  0.10941  Biso   1.000  C
  C51      1.0000 0.81893  0.30434  0.07272  Biso   1.000  C
  C52      1.0000 0.81712  0.17425  0.19834  Biso   1.000  C
  C53      1.0000 0.90397  0.15384  0.77342  Biso   1.000  C
  C54      1.0000 0.84825  0.20937  0.71670  Biso   1.000  C
  C55      1.0000 0.82054  0.30317  0.69157  Biso   1.000  C
  C56      1.0000 0.82014  0.17288  0.68818  Biso   1.000  C
  C57      1.0000 0.33015  0.17358  0.69137  Biso   1.000  C
  C58      1.0000 0.40270  0.65415  0.27570  Biso   1.000  C
  C59      1.0000 0.34588  0.71277  0.21549  Biso   1.000  C
  C60      1.0000 0.25337  0.73879  0.25217  Biso   1.000  C
  C61      1.0000 0.38347  0.74059  0.12655  Biso   1.000  C
  C62      1.0000 0.40388  0.65374  0.55147  Biso   1.000  C
  C63      1.0000 0.34835  0.70946  0.60820  Biso   1.000  C
  C64      1.0000 0.25454  0.73718  0.63332  Biso   1.000  C
  C65      1.0000 0.38483  0.73758  0.63671  Biso   1.000  C
  C66      1.0000 0.38413  0.22756  0.63352  Biso   1.000  C
  C67      1.0000 0.68064  0.37621  0.27570  Biso   1.000  C
  C68      1.0000 0.73927  0.31939  0.21549  Biso   1.000  C
  C69      1.0000 0.76527  0.22689  0.25217  Biso   1.000  C
  C70      1.0000 0.76708  0.35698  0.12655  Biso   1.000  C
  C71      1.0000 0.68023  0.37739  0.55147  Biso   1.000  C
  C72      1.0000 0.73595  0.32186  0.60820  Biso   1.000  C
  C73      1.0000 0.76366  0.22806  0.63332  Biso   1.000  C
  C74      1.0000 0.76406  0.35835  0.63671  Biso   1.000  C
  C75      1.0000 0.25405  0.35765  0.63352  Biso   1.000  C
  C76      1.0000 0.18150  0.87708  0.04919  Biso   1.000  C
  C77      1.0000 0.23832  0.81845  0.10941  Biso   1.000  C
  C78      1.0000 0.33083  0.79244  0.07272  Biso   1.000  C
  C79      1.0000 0.20074  0.79064  0.19834  Biso   1.000  C
  C80      1.0000 0.18032  0.87749  0.77342  Biso   1.000  C
  C81      1.0000 0.23585  0.82176  0.71670  Biso   1.000  C
  C82      1.0000 0.32966  0.79405  0.69157  Biso   1.000  C
  C83      1.0000 0.19937  0.79365  0.68818  Biso   1.000  C
  C84      1.0000 0.20007  0.30366  0.69137  Biso   1.000  C
  C85      1.0000 0.90187  0.87538  0.05577  Biso   1.000  C
  C86      1.0000 0.84594  0.81945  0.10861  Biso   1.000  C
  C87      1.0000 0.81942  0.79294  0.07172  Biso   1.000  C
  C88      1.0000 0.81702  0.79054  0.20033  Biso   1.000  C
  C89      1.0000 0.17743  0.15095  0.77861  Biso   1.000  C
  C90      1.0000 0.23745  0.21096  0.71680  Biso   1.000  C
  C91      1.0000 0.68233  0.65585  0.26912  Biso   1.000  C
  C92      1.0000 0.73826  0.71178  0.21628  Biso   1.000  C
  C93      1.0000 0.76478  0.73829  0.25317  Biso   1.000  C
  C94      1.0000 0.76718  0.74069  0.12456  Biso   1.000  C
  C95      1.0000 0.40677  0.38028  0.54628  Biso   1.000  C
  C96      1.0000 0.34676  0.32027  0.60810  Biso   1.000  C
  O27      1.0000 0.92360  0.06958  0.09256  Biso   1.000  O
  O28      1.0000 0.92599  0.19540  0.96674  Biso   1.000  O
  O29      1.0000 0.92331  0.06850  0.79865  Biso   1.000  O
  O30      1.0000 0.92551  0.19391  0.79586  Biso   1.000  O
  O31      1.0000 0.21970  0.06820  0.79815  Biso   1.000  O
  O32      1.0000 0.48814  0.63412  0.23233  Biso   1.000  O
  O33      1.0000 0.36232  0.63172  0.35815  Biso   1.000  O
  O34      1.0000 0.48922  0.63440  0.52624  Biso   1.000  O
  O35      1.0000 0.36380  0.63221  0.52904  Biso   1.000  O
  O36      1.0000 0.48952  0.33801  0.52674  Biso   1.000  O
  O37      1.0000 0.66061  0.46165  0.23233  Biso   1.000  O
  O38      1.0000 0.65821  0.33583  0.35815  Biso   1.000  O
  O39      1.0000 0.66089  0.46273  0.52624  Biso   1.000  O
  O40      1.0000 0.65870  0.33732  0.52904  Biso   1.000  O
  O41      1.0000 0.36450  0.46303  0.52674  Biso   1.000  O
  O42      1.0000 0.09606  0.89711  0.09256  Biso   1.000  O
  O43      1.0000 0.22188  0.89951  0.96674  Biso   1.000  O
  O44      1.0000 0.09498  0.89683  0.79865  Biso   1.000  O
  O45      1.0000 0.22040  0.89902  0.79586  Biso   1.000  O
  O46      1.0000 0.09468  0.19321  0.79815  Biso   1.000  O
  O47      1.0000 0.04124  0.01476  0.91340  Biso   1.000  O
  O48      1.0000 0.92499  0.89851  0.09156  Biso   1.000  O
  O49      1.0000 0.92340  0.89692  0.97142  Biso   1.000  O
  O50      1.0000 0.54296  0.51647  0.41149  Biso   1.000  O
  O51      1.0000 0.65921  0.63272  0.23333  Biso   1.000  O
