data_image0
_cell_length_a       18.2507
_cell_length_b       18.2507
_cell_length_c       18.2507
_cell_angle_alpha    60
_cell_angle_beta     60
_cell_angle_gamma    60

_symmetry_space_group_name_H-M    "P 1"
_symmetry_int_tables_number       1

loop_
  _symmetry_equiv_pos_as_xyz
  'x, y, z'

loop_
  _atom_site_label
  _atom_site_occupancy
  _atom_site_fract_x
  _atom_site_fract_y
  _atom_site_fract_z
  _atom_site_thermal_displace_type
  _atom_site_B_iso_or_equiv
  _atom_site_type_symbol
  C1       1.0000 0.29354  0.29353  0.11940  Biso   1.000  C
  C2       1.0000 0.29354  0.29353  0.29353  Biso   1.000  C
  C3       1.0000 0.11941  0.29353  0.29353  Biso   1.000  C
  C4       1.0000 0.29354  0.11940  0.29353  Biso   1.000  C
  C5       1.0000 0.70646  0.70647  0.88060  Biso   1.000  C
  C6       1.0000 0.70646  0.70647  0.70647  Biso   1.000  C
  C7       1.0000 0.70646  0.88060  0.70647  Biso   1.000  C
  C8       1.0000 0.88059  0.70647  0.70647  Biso   1.000  C
  C9       1.0000 0.45580  0.45580  0.93620  Biso   1.000  C
  C10      1.0000 0.45580  0.45580  0.15220  Biso   1.000  C
  C11      1.0000 0.93620  0.15220  0.45580  Biso   1.000  C
  C12      1.0000 0.15220  0.93620  0.45580  Biso   1.000  C
  C13      1.0000 0.45580  0.93620  0.15220  Biso   1.000  C
  C14      1.0000 0.45580  0.15220  0.93620  Biso   1.000  C
  C15      1.0000 0.93620  0.45580  0.45580  Biso   1.000  C
  C16      1.0000 0.15220  0.45580  0.45580  Biso   1.000  C
  C17      1.0000 0.45580  0.15220  0.45580  Biso   1.000  C
  C18      1.0000 0.45580  0.93620  0.45580  Biso   1.000  C
  C19      1.0000 0.93620  0.45580  0.15220  Biso   1.000  C
  C20      1.0000 0.15220  0.45580  0.93620  Biso   1.000  C
  C21      1.0000 0.54420  0.54420  0.06380  Biso   1.000  C
  C22      1.0000 0.54420  0.54420  0.84780  Biso   1.000  C
  C23      1.0000 0.84780  0.06380  0.54420  Biso   1.000  C
  C24      1.0000 0.06380  0.84780  0.54420  Biso   1.000  C
  C25      1.0000 0.06380  0.54420  0.84780  Biso   1.000  C
  C26      1.0000 0.84780  0.54420  0.06380  Biso   1.000  C
  C27      1.0000 0.54420  0.06380  0.54420  Biso   1.000  C
  C28      1.0000 0.54420  0.84780  0.54420  Biso   1.000  C
  C29      1.0000 0.84780  0.54420  0.54420  Biso   1.000  C
  C30      1.0000 0.06380  0.54420  0.54420  Biso   1.000  C
  C31      1.0000 0.54420  0.06380  0.84780  Biso   1.000  C
  C32      1.0000 0.54420  0.84780  0.06380  Biso   1.000  C
  C33      1.0000 0.47349  0.47349  0.96297  Biso   1.000  C
  C34      1.0000 0.47349  0.47349  0.09005  Biso   1.000  C
  C35      1.0000 0.96297  0.09005  0.47349  Biso   1.000  C
  C36      1.0000 0.09005  0.96297  0.47349  Biso   1.000  C
  C37      1.0000 0.47349  0.96297  0.09005  Biso   1.000  C
  C38      1.0000 0.47349  0.09005  0.96297  Biso   1.000  C
  C39      1.0000 0.96297  0.47349  0.47349  Biso   1.000  C
  C40      1.0000 0.09005  0.47349  0.47349  Biso   1.000  C
  C41      1.0000 0.47349  0.09005  0.47349  Biso   1.000  C
  C42      1.0000 0.47349  0.96297  0.47349  Biso   1.000  C
  C43      1.0000 0.96297  0.47349  0.09005  Biso   1.000  C
  C44      1.0000 0.09005  0.47349  0.96297  Biso   1.000  C
  C45      1.0000 0.52651  0.52651  0.03703  Biso   1.000  C
  C46      1.0000 0.52651  0.52651  0.90995  Biso   1.000  C
  C47      1.0000 0.90995  0.03703  0.52651  Biso   1.000  C
  C48      1.0000 0.03703  0.90995  0.52651  Biso   1.000  C
  C49      1.0000 0.03703  0.52651  0.90995  Biso   1.000  C
  C50      1.0000 0.90995  0.52651  0.03703  Biso   1.000  C
  C51      1.0000 0.52651  0.03703  0.52651  Biso   1.000  C
  C52      1.0000 0.52651  0.90995  0.52651  Biso   1.000  C
  C53      1.0000 0.90995  0.52651  0.52651  Biso   1.000  C
  C54      1.0000 0.03703  0.52651  0.52651  Biso   1.000  C
  C55      1.0000 0.52651  0.03703  0.90995  Biso   1.000  C
  C56      1.0000 0.52651  0.90995  0.03703  Biso   1.000  C
  C57      1.0000 0.38859  0.38859  0.11141  Biso   1.000  C
  C58      1.0000 0.44630  0.44630  0.05370  Biso   1.000  C
  C59      1.0000 0.11141  0.11141  0.38859  Biso   1.000  C
  C60      1.0000 0.05370  0.05370  0.44630  Biso   1.000  C
  C61      1.0000 0.38859  0.11141  0.11141  Biso   1.000  C
  C62      1.0000 0.44630  0.05370  0.05370  Biso   1.000  C
  C63      1.0000 0.11141  0.38859  0.38859  Biso   1.000  C
  C64      1.0000 0.05370  0.44630  0.44630  Biso   1.000  C
  C65      1.0000 0.38859  0.11141  0.38859  Biso   1.000  C
  C66      1.0000 0.44630  0.05370  0.44630  Biso   1.000  C
  C67      1.0000 0.11141  0.38859  0.11141  Biso   1.000  C
  C68      1.0000 0.05370  0.44630  0.05370  Biso   1.000  C
  C69      1.0000 0.61141  0.61141  0.88859  Biso   1.000  C
  C70      1.0000 0.55370  0.55370  0.94630  Biso   1.000  C
  C71      1.0000 0.88859  0.88859  0.61141  Biso   1.000  C
  C72      1.0000 0.94630  0.94630  0.55370  Biso   1.000  C
  C73      1.0000 0.88859  0.61141  0.88859  Biso   1.000  C
  C74      1.0000 0.94630  0.55370  0.94630  Biso   1.000  C
  C75      1.0000 0.61141  0.88859  0.61141  Biso   1.000  C
  C76      1.0000 0.55370  0.94630  0.55370  Biso   1.000  C
  C77      1.0000 0.88859  0.61141  0.61141  Biso   1.000  C
  C78      1.0000 0.94630  0.55370  0.55370  Biso   1.000  C
  C79      1.0000 0.61141  0.88859  0.88859  Biso   1.000  C
  C80      1.0000 0.55370  0.94630  0.94630  Biso   1.000  C
  C81      1.0000 0.25000  0.25000  0.25000  Biso   1.000  C
  C82      1.0000 0.75000  0.75000  0.75000  Biso   1.000  C
  C83      1.0000 0.36605  0.36605  0.07321  Biso   1.000  C
  C84      1.0000 0.36605  0.36605  0.19469  Biso   1.000  C
  C85      1.0000 0.07321  0.19469  0.36605  Biso   1.000  C
  C86      1.0000 0.19469  0.07321  0.36605  Biso   1.000  C
  C87      1.0000 0.36605  0.07321  0.19469  Biso   1.000  C
  C88      1.0000 0.36605  0.19469  0.07321  Biso   1.000  C
  C89      1.0000 0.07321  0.36605  0.36605  Biso   1.000  C
  C90      1.0000 0.19469  0.36605  0.36605  Biso   1.000  C
  C91      1.0000 0.36605  0.19469  0.36605  Biso   1.000  C
  C92      1.0000 0.36605  0.07321  0.36605  Biso   1.000  C
  C93      1.0000 0.07321  0.36605  0.19469  Biso   1.000  C
  C94      1.0000 0.19469  0.36605  0.07321  Biso   1.000  C
  C95      1.0000 0.63395  0.63395  0.92679  Biso   1.000  C
  C96      1.0000 0.63395  0.63395  0.80531  Biso   1.000  C
  C97      1.0000 0.80531  0.92679  0.63395  Biso   1.000  C
  C98      1.0000 0.92679  0.80531  0.63395  Biso   1.000  C
  C99      1.0000 0.92679  0.63395  0.80531  Biso   1.000  C
  C100     1.0000 0.80531  0.63395  0.92679  Biso   1.000  C
  C101     1.0000 0.63395  0.92679  0.63395  Biso   1.000  C
  C102     1.0000 0.63395  0.80531  0.63395  Biso   1.000  C
  C103     1.0000 0.80531  0.63395  0.63395  Biso   1.000  C
  C104     1.0000 0.92679  0.63395  0.63395  Biso   1.000  C
  C105     1.0000 0.63395  0.92679  0.80531  Biso   1.000  C
  C106     1.0000 0.63395  0.80531  0.92679  Biso   1.000  C
  O1       1.0000 0.47786  0.34573  0.67107  Biso   1.000  O
  O2       1.0000 0.65198  0.34573  0.49696  Biso   1.000  O
  O3       1.0000 0.47786  0.34573  0.49696  Biso   1.000  O
  O4       1.0000 0.47786  0.51984  0.49696  Biso   1.000  O
  O5       1.0000 0.06449  0.93293  0.91004  Biso   1.000  O
  O6       1.0000 0.89038  0.93293  0.08415  Biso   1.000  O
  O7       1.0000 0.06449  0.75882  0.08415  Biso   1.000  O
  O8       1.0000 0.06449  0.93293  0.08415  Biso   1.000  O
  O9       1.0000 0.61888  0.18352  0.85448  Biso   1.000  O
  O10      1.0000 0.83510  0.18352  0.63826  Biso   1.000  O
  O11      1.0000 0.31537  0.48703  0.33474  Biso   1.000  O
  O12      1.0000 0.31537  0.70325  0.33474  Biso   1.000  O
  O13      1.0000 0.31537  0.70325  0.63826  Biso   1.000  O
  O14      1.0000 0.31537  0.48703  0.85448  Biso   1.000  O
  O15      1.0000 0.61888  0.18352  0.33474  Biso   1.000  O
  O16      1.0000 0.83510  0.18352  0.33474  Biso   1.000  O
  O17      1.0000 0.83510  0.48703  0.33474  Biso   1.000  O
  O18      1.0000 0.61888  0.70325  0.33474  Biso   1.000  O
  O19      1.0000 0.31537  0.18352  0.63826  Biso   1.000  O
  O20      1.0000 0.31537  0.18352  0.85448  Biso   1.000  O
  O21      1.0000 0.92348  0.09514  0.72663  Biso   1.000  O
  O22      1.0000 0.70725  0.09514  0.94285  Biso   1.000  O
  O23      1.0000 0.22699  0.57540  0.24637  Biso   1.000  O
  O24      1.0000 0.22699  0.79163  0.24637  Biso   1.000  O
  O25      1.0000 0.22699  0.09514  0.94285  Biso   1.000  O
  O26      1.0000 0.22699  0.09514  0.72663  Biso   1.000  O
  O27      1.0000 0.92348  0.57540  0.24637  Biso   1.000  O
  O28      1.0000 0.70725  0.79163  0.24637  Biso   1.000  O
  O29      1.0000 0.70725  0.09514  0.24637  Biso   1.000  O
  O30      1.0000 0.92348  0.09514  0.24637  Biso   1.000  O
  O31      1.0000 0.22699  0.57540  0.94285  Biso   1.000  O
  O32      1.0000 0.22699  0.79163  0.72663  Biso   1.000  O
  O33      1.0000 0.68099  0.16587  0.82766  Biso   1.000  O
  O34      1.0000 0.80828  0.16587  0.70037  Biso   1.000  O
  O35      1.0000 0.29772  0.54914  0.31710  Biso   1.000  O
  O36      1.0000 0.29772  0.67643  0.31710  Biso   1.000  O
  O37      1.0000 0.29772  0.67643  0.70037  Biso   1.000  O
  O38      1.0000 0.29772  0.54914  0.82766  Biso   1.000  O
  O39      1.0000 0.68099  0.16587  0.31710  Biso   1.000  O
  O40      1.0000 0.80828  0.16587  0.31710  Biso   1.000  O
  O41      1.0000 0.80828  0.54914  0.31710  Biso   1.000  O
  O42      1.0000 0.68099  0.67643  0.31710  Biso   1.000  O
  O43      1.0000 0.29772  0.16587  0.70037  Biso   1.000  O
  O44      1.0000 0.29772  0.16587  0.82766  Biso   1.000  O
  O45      1.0000 0.86137  0.11279  0.75345  Biso   1.000  O
  O46      1.0000 0.73408  0.11279  0.88074  Biso   1.000  O
  O47      1.0000 0.24464  0.60223  0.26401  Biso   1.000  O
  O48      1.0000 0.24464  0.72952  0.26401  Biso   1.000  O
  O49      1.0000 0.24464  0.11279  0.88074  Biso   1.000  O
  O50      1.0000 0.24464  0.11279  0.75345  Biso   1.000  O
  O51      1.0000 0.86137  0.60223  0.26401  Biso   1.000  O
  O52      1.0000 0.73408  0.72952  0.26401  Biso   1.000  O
  O53      1.0000 0.73408  0.11279  0.26401  Biso   1.000  O
  O54      1.0000 0.86137  0.11279  0.26401  Biso   1.000  O
  O55      1.0000 0.24464  0.60223  0.88074  Biso   1.000  O
  O56      1.0000 0.24464  0.72952  0.75345  Biso   1.000  O
  O57      1.0000 0.65992  0.25073  0.67902  Biso   1.000  O
  O58      1.0000 0.71754  0.19311  0.73663  Biso   1.000  O
  O59      1.0000 0.38286  0.52779  0.40195  Biso   1.000  O
  O60      1.0000 0.32525  0.58540  0.34434  Biso   1.000  O
  O61      1.0000 0.38286  0.52779  0.67902  Biso   1.000  O
  O62      1.0000 0.32525  0.58540  0.73663  Biso   1.000  O
  O63      1.0000 0.65992  0.25073  0.40195  Biso   1.000  O
  O64      1.0000 0.71754  0.19311  0.34434  Biso   1.000  O
  O65      1.0000 0.65992  0.52779  0.40195  Biso   1.000  O
  O66      1.0000 0.71754  0.58540  0.34434  Biso   1.000  O
  O67      1.0000 0.38286  0.25073  0.67902  Biso   1.000  O
  O68      1.0000 0.32525  0.19311  0.73663  Biso   1.000  O
  O69      1.0000 0.88243  0.02793  0.90210  Biso   1.000  O
  O70      1.0000 0.82482  0.08554  0.84448  Biso   1.000  O
  O71      1.0000 0.15950  0.75087  0.17916  Biso   1.000  O
  O72      1.0000 0.21711  0.69326  0.23677  Biso   1.000  O
  O73      1.0000 0.15950  0.02793  0.90210  Biso   1.000  O
  O74      1.0000 0.21711  0.08554  0.84448  Biso   1.000  O
  O75      1.0000 0.88243  0.75087  0.17916  Biso   1.000  O
  O76      1.0000 0.82482  0.69326  0.23677  Biso   1.000  O
  O77      1.0000 0.88243  0.02793  0.17916  Biso   1.000  O
  O78      1.0000 0.82482  0.08554  0.23677  Biso   1.000  O
  O79      1.0000 0.15950  0.75087  0.90210  Biso   1.000  O
  O80      1.0000 0.21711  0.69326  0.84448  Biso   1.000  O
  O81      1.0000 0.52139  0.38926  0.54048  Biso   1.000  O
  O82      1.0000 0.02096  0.88940  0.04063  Biso   1.000  O
  O83      1.0000 0.57655  0.27326  0.71732  Biso   1.000  O
  O84      1.0000 0.69823  0.27326  0.59564  Biso   1.000  O
  O85      1.0000 0.40540  0.44441  0.42449  Biso   1.000  O
  O86      1.0000 0.40540  0.56610  0.42449  Biso   1.000  O
  O87      1.0000 0.40540  0.56610  0.59564  Biso   1.000  O
  O88      1.0000 0.40540  0.44441  0.71732  Biso   1.000  O
  O89      1.0000 0.57655  0.27326  0.42449  Biso   1.000  O
  O90      1.0000 0.69823  0.27326  0.42449  Biso   1.000  O
  O91      1.0000 0.69823  0.44441  0.42449  Biso   1.000  O
  O92      1.0000 0.57655  0.56610  0.42449  Biso   1.000  O
  O93      1.0000 0.40540  0.27326  0.59564  Biso   1.000  O
  O94      1.0000 0.40540  0.27326  0.71732  Biso   1.000  O
  O95      1.0000 0.96581  0.00540  0.86379  Biso   1.000  O
  O96      1.0000 0.84413  0.00540  0.98547  Biso   1.000  O
  O97      1.0000 0.13696  0.71256  0.15662  Biso   1.000  O
  O98      1.0000 0.13696  0.83425  0.15662  Biso   1.000  O
  O99      1.0000 0.13696  0.00540  0.98547  Biso   1.000  O
  O100     1.0000 0.13696  0.00540  0.86379  Biso   1.000  O
  O101     1.0000 0.96581  0.71256  0.15662  Biso   1.000  O
  O102     1.0000 0.84413  0.83425  0.15662  Biso   1.000  O
  O103     1.0000 0.84413  0.00540  0.15662  Biso   1.000  O
  O104     1.0000 0.96581  0.00540  0.15662  Biso   1.000  O
  O105     1.0000 0.13696  0.71256  0.98547  Biso   1.000  O
