data_image0
_cell_length_a       18.2751
_cell_length_b       18.2751
_cell_length_c       18.2751
_cell_angle_alpha    60
_cell_angle_beta     60
_cell_angle_gamma    60

_symmetry_space_group_name_H-M    "P 1"
_symmetry_int_tables_number       1

loop_
  _symmetry_equiv_pos_as_xyz
  'x, y, z'

loop_
  _atom_site_label
  _atom_site_occupancy
  _atom_site_fract_x
  _atom_site_fract_y
  _atom_site_fract_z
  _atom_site_thermal_displace_type
  _atom_site_B_iso_or_equiv
  _atom_site_type_symbol
  C1       1.0000 0.29350  0.29349  0.11952  Biso   1.000  C
  C2       1.0000 0.29350  0.29349  0.29349  Biso   1.000  C
  C3       1.0000 0.11953  0.29349  0.29349  Biso   1.000  C
  C4       1.0000 0.29350  0.11952  0.29349  Biso   1.000  C
  C5       1.0000 0.70650  0.70651  0.88048  Biso   1.000  C
  C6       1.0000 0.70650  0.70651  0.70651  Biso   1.000  C
  C7       1.0000 0.70650  0.88048  0.70651  Biso   1.000  C
  C8       1.0000 0.88047  0.70651  0.70651  Biso   1.000  C
  C9       1.0000 0.45530  0.45530  0.93570  Biso   1.000  C
  C10      1.0000 0.45530  0.45530  0.15370  Biso   1.000  C
  C11      1.0000 0.93570  0.15370  0.45530  Biso   1.000  C
  C12      1.0000 0.15370  0.93570  0.45530  Biso   1.000  C
  C13      1.0000 0.45530  0.93570  0.15370  Biso   1.000  C
  C14      1.0000 0.45530  0.15370  0.93570  Biso   1.000  C
  C15      1.0000 0.93570  0.45530  0.45530  Biso   1.000  C
  C16      1.0000 0.15370  0.45530  0.45530  Biso   1.000  C
  C17      1.0000 0.45530  0.15370  0.45530  Biso   1.000  C
  C18      1.0000 0.45530  0.93570  0.45530  Biso   1.000  C
  C19      1.0000 0.93570  0.45530  0.15370  Biso   1.000  C
  C20      1.0000 0.15370  0.45530  0.93570  Biso   1.000  C
  C21      1.0000 0.54470  0.54470  0.06430  Biso   1.000  C
  C22      1.0000 0.54470  0.54470  0.84630  Biso   1.000  C
  C23      1.0000 0.84630  0.06430  0.54470  Biso   1.000  C
  C24      1.0000 0.06430  0.84630  0.54470  Biso   1.000  C
  C25      1.0000 0.06430  0.54470  0.84630  Biso   1.000  C
  C26      1.0000 0.84630  0.54470  0.06430  Biso   1.000  C
  C27      1.0000 0.54470  0.06430  0.54470  Biso   1.000  C
  C28      1.0000 0.54470  0.84630  0.54470  Biso   1.000  C
  C29      1.0000 0.84630  0.54470  0.54470  Biso   1.000  C
  C30      1.0000 0.06430  0.54470  0.54470  Biso   1.000  C
  C31      1.0000 0.54470  0.06430  0.84630  Biso   1.000  C
  C32      1.0000 0.54470  0.84630  0.06430  Biso   1.000  C
  C33      1.0000 0.47331  0.47331  0.96231  Biso   1.000  C
  C34      1.0000 0.47331  0.47331  0.09107  Biso   1.000  C
  C35      1.0000 0.96231  0.09107  0.47331  Biso   1.000  C
  C36      1.0000 0.09107  0.96231  0.47331  Biso   1.000  C
  C37      1.0000 0.47331  0.96231  0.09107  Biso   1.000  C
  C38      1.0000 0.47331  0.09107  0.96231  Biso   1.000  C
  C39      1.0000 0.96231  0.47331  0.47331  Biso   1.000  C
  C40      1.0000 0.09107  0.47331  0.47331  Biso   1.000  C
  C41      1.0000 0.47331  0.09107  0.47331  Biso   1.000  C
  C42      1.0000 0.47331  0.96231  0.47331  Biso   1.000  C
  C43      1.0000 0.96231  0.47331  0.09107  Biso   1.000  C
  C44      1.0000 0.09107  0.47331  0.96231  Biso   1.000  C
  C45      1.0000 0.52669  0.52669  0.03769  Biso   1.000  C
  C46      1.0000 0.52669  0.52669  0.90893  Biso   1.000  C
  C47      1.0000 0.90893  0.03769  0.52669  Biso   1.000  C
  C48      1.0000 0.03769  0.90893  0.52669  Biso   1.000  C
  C49      1.0000 0.03769  0.52669  0.90893  Biso   1.000  C
  C50      1.0000 0.90893  0.52669  0.03769  Biso   1.000  C
  C51      1.0000 0.52669  0.03769  0.52669  Biso   1.000  C
  C52      1.0000 0.52669  0.90893  0.52669  Biso   1.000  C
  C53      1.0000 0.90893  0.52669  0.52669  Biso   1.000  C
  C54      1.0000 0.03769  0.52669  0.52669  Biso   1.000  C
  C55      1.0000 0.52669  0.03769  0.90893  Biso   1.000  C
  C56      1.0000 0.52669  0.90893  0.03769  Biso   1.000  C
  C57      1.0000 0.38853  0.38853  0.11147  Biso   1.000  C
  C58      1.0000 0.44625  0.44625  0.05375  Biso   1.000  C
  C59      1.0000 0.11147  0.11147  0.38853  Biso   1.000  C
  C60      1.0000 0.05375  0.05375  0.44625  Biso   1.000  C
  C61      1.0000 0.38853  0.11147  0.11147  Biso   1.000  C
  C62      1.0000 0.44625  0.05375  0.05375  Biso   1.000  C
  C63      1.0000 0.11147  0.38853  0.38853  Biso   1.000  C
  C64      1.0000 0.05375  0.44625  0.44625  Biso   1.000  C
  C65      1.0000 0.38853  0.11147  0.38853  Biso   1.000  C
  C66      1.0000 0.44625  0.05375  0.44625  Biso   1.000  C
  C67      1.0000 0.11147  0.38853  0.11147  Biso   1.000  C
  C68      1.0000 0.05375  0.44625  0.05375  Biso   1.000  C
  C69      1.0000 0.61147  0.61147  0.88853  Biso   1.000  C
  C70      1.0000 0.55375  0.55375  0.94625  Biso   1.000  C
  C71      1.0000 0.88853  0.88853  0.61147  Biso   1.000  C
  C72      1.0000 0.94625  0.94625  0.55375  Biso   1.000  C
  C73      1.0000 0.88853  0.61147  0.88853  Biso   1.000  C
  C74      1.0000 0.94625  0.55375  0.94625  Biso   1.000  C
  C75      1.0000 0.61147  0.88853  0.61147  Biso   1.000  C
  C76      1.0000 0.55375  0.94625  0.55375  Biso   1.000  C
  C77      1.0000 0.88853  0.61147  0.61147  Biso   1.000  C
  C78      1.0000 0.94625  0.55375  0.55375  Biso   1.000  C
  C79      1.0000 0.61147  0.88853  0.88853  Biso   1.000  C
  C80      1.0000 0.55375  0.94625  0.94625  Biso   1.000  C
  C81      1.0000 0.25000  0.25000  0.25000  Biso   1.000  C
  C82      1.0000 0.75000  0.75000  0.75000  Biso   1.000  C
  C83      1.0000 0.36609  0.36609  0.07299  Biso   1.000  C
  C84      1.0000 0.36609  0.36609  0.19483  Biso   1.000  C
  C85      1.0000 0.07299  0.19483  0.36609  Biso   1.000  C
  C86      1.0000 0.19483  0.07299  0.36609  Biso   1.000  C
  C87      1.0000 0.36609  0.07299  0.19483  Biso   1.000  C
  C88      1.0000 0.36609  0.19483  0.07299  Biso   1.000  C
  C89      1.0000 0.07299  0.36609  0.36609  Biso   1.000  C
  C90      1.0000 0.19483  0.36609  0.36609  Biso   1.000  C
  C91      1.0000 0.36609  0.19483  0.36609  Biso   1.000  C
  C92      1.0000 0.36609  0.07299  0.36609  Biso   1.000  C
  C93      1.0000 0.07299  0.36609  0.19483  Biso   1.000  C
  C94      1.0000 0.19483  0.36609  0.07299  Biso   1.000  C
  C95      1.0000 0.63391  0.63391  0.92701  Biso   1.000  C
  C96      1.0000 0.63391  0.63391  0.80517  Biso   1.000  C
  C97      1.0000 0.80517  0.92701  0.63391  Biso   1.000  C
  C98      1.0000 0.92701  0.80517  0.63391  Biso   1.000  C
  C99      1.0000 0.92701  0.63391  0.80517  Biso   1.000  C
  C100     1.0000 0.80517  0.63391  0.92701  Biso   1.000  C
  C101     1.0000 0.63391  0.92701  0.63391  Biso   1.000  C
  C102     1.0000 0.63391  0.80517  0.63391  Biso   1.000  C
  C103     1.0000 0.80517  0.63391  0.63391  Biso   1.000  C
  C104     1.0000 0.92701  0.63391  0.63391  Biso   1.000  C
  C105     1.0000 0.63391  0.92701  0.80517  Biso   1.000  C
  C106     1.0000 0.63391  0.80517  0.92701  Biso   1.000  C
  O1       1.0000 0.49415  0.64652  0.33509  Biso   1.000  O
  O2       1.0000 0.49415  0.64652  0.50855  Biso   1.000  O
  O3       1.0000 0.32068  0.64652  0.50855  Biso   1.000  O
  O4       1.0000 0.49415  0.47306  0.50855  Biso   1.000  O
  O5       1.0000 0.91103  0.06342  0.09891  Biso   1.000  O
  O6       1.0000 0.91103  0.06342  0.92545  Biso   1.000  O
  O7       1.0000 0.91103  0.23688  0.92545  Biso   1.000  O
  O8       1.0000 0.08449  0.06342  0.92545  Biso   1.000  O
  O9       1.0000 0.35736  0.80716  0.15059  Biso   1.000  O
  O10      1.0000 0.65478  0.50974  0.66919  Biso   1.000  O
  O11      1.0000 0.13617  0.80716  0.37177  Biso   1.000  O
  O12      1.0000 0.65478  0.28856  0.66919  Biso   1.000  O
  O13      1.0000 0.35736  0.28856  0.66919  Biso   1.000  O
  O14      1.0000 0.65478  0.80716  0.15059  Biso   1.000  O
  O15      1.0000 0.13617  0.50974  0.66919  Biso   1.000  O
  O16      1.0000 0.65478  0.80716  0.37177  Biso   1.000  O
  O17      1.0000 0.35736  0.80716  0.66919  Biso   1.000  O
  O18      1.0000 0.65478  0.28856  0.37177  Biso   1.000  O
  O19      1.0000 0.13617  0.80716  0.66919  Biso   1.000  O
  O20      1.0000 0.65478  0.50974  0.15059  Biso   1.000  O
  O21      1.0000 0.75040  0.20020  0.28341  Biso   1.000  O
  O22      1.0000 0.04782  0.90278  0.76481  Biso   1.000  O
  O23      1.0000 0.75040  0.42138  0.06223  Biso   1.000  O
  O24      1.0000 0.26900  0.90278  0.76481  Biso   1.000  O
  O25      1.0000 0.26900  0.20020  0.76481  Biso   1.000  O
  O26      1.0000 0.75040  0.90278  0.28341  Biso   1.000  O
  O27      1.0000 0.04782  0.42138  0.76481  Biso   1.000  O
  O28      1.0000 0.75040  0.90278  0.06223  Biso   1.000  O
  O29      1.0000 0.75040  0.20020  0.76481  Biso   1.000  O
  O30      1.0000 0.26900  0.90278  0.06223  Biso   1.000  O
  O31      1.0000 0.75040  0.42138  0.76481  Biso   1.000  O
  O32      1.0000 0.04782  0.90278  0.28341  Biso   1.000  O
  O33      1.0000 0.29403  0.82550  0.17724  Biso   1.000  O
  O34      1.0000 0.67312  0.44641  0.68753  Biso   1.000  O
  O35      1.0000 0.16283  0.82550  0.30844  Biso   1.000  O
  O36      1.0000 0.67312  0.31521  0.68753  Biso   1.000  O
  O37      1.0000 0.29403  0.31521  0.68753  Biso   1.000  O
  O38      1.0000 0.67312  0.82550  0.17724  Biso   1.000  O
  O39      1.0000 0.16283  0.44641  0.68753  Biso   1.000  O
  O40      1.0000 0.67312  0.82550  0.30844  Biso   1.000  O
  O41      1.0000 0.29403  0.82550  0.68753  Biso   1.000  O
  O42      1.0000 0.67312  0.31521  0.30844  Biso   1.000  O
  O43      1.0000 0.16283  0.82550  0.68753  Biso   1.000  O
  O44      1.0000 0.67312  0.44641  0.17724  Biso   1.000  O
  O45      1.0000 0.73206  0.26353  0.25676  Biso   1.000  O
  O46      1.0000 0.11115  0.88444  0.74647  Biso   1.000  O
  O47      1.0000 0.73206  0.39473  0.12556  Biso   1.000  O
  O48      1.0000 0.24235  0.88444  0.74647  Biso   1.000  O
  O49      1.0000 0.24235  0.26353  0.74647  Biso   1.000  O
  O50      1.0000 0.73206  0.88444  0.25676  Biso   1.000  O
  O51      1.0000 0.11115  0.39473  0.74647  Biso   1.000  O
  O52      1.0000 0.73206  0.88444  0.12556  Biso   1.000  O
  O53      1.0000 0.73206  0.26353  0.74647  Biso   1.000  O
  O54      1.0000 0.24235  0.88444  0.12556  Biso   1.000  O
  O55      1.0000 0.73206  0.39473  0.74647  Biso   1.000  O
  O56      1.0000 0.11115  0.88444  0.25676  Biso   1.000  O
  O57      1.0000 0.25540  0.79853  0.26981  Biso   1.000  O
  O58      1.0000 0.31338  0.74055  0.32779  Biso   1.000  O
  O59      1.0000 0.64614  0.40778  0.66056  Biso   1.000  O
  O60      1.0000 0.58817  0.46576  0.60258  Biso   1.000  O
  O61      1.0000 0.25540  0.40778  0.66056  Biso   1.000  O
  O62      1.0000 0.31338  0.46576  0.60258  Biso   1.000  O
  O63      1.0000 0.64614  0.79853  0.26981  Biso   1.000  O
  O64      1.0000 0.58817  0.74055  0.32779  Biso   1.000  O
  O65      1.0000 0.25540  0.79853  0.66056  Biso   1.000  O
  O66      1.0000 0.31338  0.74055  0.60258  Biso   1.000  O
  O67      1.0000 0.64614  0.40778  0.26981  Biso   1.000  O
  O68      1.0000 0.58817  0.46576  0.32779  Biso   1.000  O
  O69      1.0000 0.75903  0.30216  0.16419  Biso   1.000  O
  O70      1.0000 0.81701  0.24418  0.10621  Biso   1.000  O
  O71      1.0000 0.14977  0.91141  0.77344  Biso   1.000  O
  O72      1.0000 0.09180  0.96939  0.83142  Biso   1.000  O
  O73      1.0000 0.14977  0.30216  0.77344  Biso   1.000  O
  O74      1.0000 0.09180  0.24418  0.83142  Biso   1.000  O
  O75      1.0000 0.75903  0.91141  0.16419  Biso   1.000  O
  O76      1.0000 0.81701  0.96939  0.10621  Biso   1.000  O
  O77      1.0000 0.75903  0.30216  0.77344  Biso   1.000  O
  O78      1.0000 0.81701  0.24418  0.83142  Biso   1.000  O
  O79      1.0000 0.14977  0.91141  0.16419  Biso   1.000  O
  O80      1.0000 0.09180  0.96939  0.10621  Biso   1.000  O
  O81      1.0000 0.45077  0.60315  0.46518  Biso   1.000  O
  O82      1.0000 0.95440  0.10678  0.96881  Biso   1.000  O
  O83      1.0000 0.39924  0.71866  0.28571  Biso   1.000  O
  O84      1.0000 0.56628  0.55162  0.58069  Biso   1.000  O
  O85      1.0000 0.27130  0.71866  0.41365  Biso   1.000  O
  O86      1.0000 0.56628  0.42368  0.58069  Biso   1.000  O
  O87      1.0000 0.39924  0.42368  0.58069  Biso   1.000  O
  O88      1.0000 0.56628  0.71866  0.28571  Biso   1.000  O
  O89      1.0000 0.27130  0.55162  0.58069  Biso   1.000  O
  O90      1.0000 0.56628  0.71866  0.41365  Biso   1.000  O
  O91      1.0000 0.39924  0.71866  0.58069  Biso   1.000  O
  O92      1.0000 0.56628  0.42368  0.41365  Biso   1.000  O
  O93      1.0000 0.27130  0.71866  0.58069  Biso   1.000  O
  O94      1.0000 0.56628  0.55162  0.28571  Biso   1.000  O
  O95      1.0000 0.83890  0.15832  0.14829  Biso   1.000  O
  O96      1.0000 0.00594  0.99128  0.85331  Biso   1.000  O
  O97      1.0000 0.83890  0.28626  0.02035  Biso   1.000  O
  O98      1.0000 0.13388  0.99128  0.85331  Biso   1.000  O
  O99      1.0000 0.13388  0.15832  0.85331  Biso   1.000  O
  O100     1.0000 0.83890  0.99128  0.14829  Biso   1.000  O
  O101     1.0000 0.00594  0.28626  0.85331  Biso   1.000  O
  O102     1.0000 0.83890  0.99128  0.02035  Biso   1.000  O
  O103     1.0000 0.83890  0.15832  0.85331  Biso   1.000  O
  O104     1.0000 0.13388  0.99128  0.02035  Biso   1.000  O
  O105     1.0000 0.83890  0.28626  0.85331  Biso   1.000  O
