data_image0
_cell_length_a       18.255
_cell_length_b       18.255
_cell_length_c       18.255
_cell_angle_alpha    60
_cell_angle_beta     60
_cell_angle_gamma    60

_symmetry_space_group_name_H-M    "P 1"
_symmetry_int_tables_number       1

loop_
  _symmetry_equiv_pos_as_xyz
  'x, y, z'

loop_
  _atom_site_label
  _atom_site_occupancy
  _atom_site_fract_x
  _atom_site_fract_y
  _atom_site_fract_z
  _atom_site_thermal_displace_type
  _atom_site_B_iso_or_equiv
  _atom_site_type_symbol
  Zn1      1.0000 0.29354  0.29354  0.11938  Biso   1.000  Zn
  Zn2      1.0000 0.29354  0.29354  0.29354  Biso   1.000  Zn
  Zn3      1.0000 0.11938  0.29354  0.29354  Biso   1.000  Zn
  Zn4      1.0000 0.29354  0.11938  0.29354  Biso   1.000  Zn
  Zn5      1.0000 0.70646  0.70646  0.88062  Biso   1.000  Zn
  Zn6      1.0000 0.70646  0.70646  0.70646  Biso   1.000  Zn
  Zn7      1.0000 0.70646  0.88062  0.70646  Biso   1.000  Zn
  Zn8      1.0000 0.88062  0.70646  0.70646  Biso   1.000  Zn
  H1       1.0000 0.45570  0.45570  0.93630  Biso   1.000  H
  H2       1.0000 0.45570  0.45570  0.15230  Biso   1.000  H
  H3       1.0000 0.93630  0.15230  0.45570  Biso   1.000  H
  H4       1.0000 0.15230  0.93630  0.45570  Biso   1.000  H
  H5       1.0000 0.45570  0.93630  0.15230  Biso   1.000  H
  H6       1.0000 0.45570  0.15230  0.93630  Biso   1.000  H
  H7       1.0000 0.93630  0.45570  0.45570  Biso   1.000  H
  H8       1.0000 0.15230  0.45570  0.45570  Biso   1.000  H
  H9       1.0000 0.45570  0.15230  0.45570  Biso   1.000  H
  H10      1.0000 0.45570  0.93630  0.45570  Biso   1.000  H
  H11      1.0000 0.93630  0.45570  0.15230  Biso   1.000  H
  H12      1.0000 0.15230  0.45570  0.93630  Biso   1.000  H
  H13      1.0000 0.54430  0.54430  0.06370  Biso   1.000  H
  H14      1.0000 0.54430  0.54430  0.84770  Biso   1.000  H
  H15      1.0000 0.84770  0.06370  0.54430  Biso   1.000  H
  H16      1.0000 0.06370  0.84770  0.54430  Biso   1.000  H
  H17      1.0000 0.06370  0.54430  0.84770  Biso   1.000  H
  H18      1.0000 0.84770  0.54430  0.06370  Biso   1.000  H
  H19      1.0000 0.54430  0.06370  0.54430  Biso   1.000  H
  H20      1.0000 0.54430  0.84770  0.54430  Biso   1.000  H
  H21      1.0000 0.84770  0.54430  0.54430  Biso   1.000  H
  H22      1.0000 0.06370  0.54430  0.54430  Biso   1.000  H
  H23      1.0000 0.54430  0.06370  0.84770  Biso   1.000  H
  H24      1.0000 0.54430  0.84770  0.06370  Biso   1.000  H
  C1       1.0000 0.47332  0.47332  0.96310  Biso   1.000  C
  C2       1.0000 0.47332  0.47332  0.09026  Biso   1.000  C
  C3       1.0000 0.96310  0.09026  0.47332  Biso   1.000  C
  C4       1.0000 0.09026  0.96310  0.47332  Biso   1.000  C
  C5       1.0000 0.47332  0.96310  0.09026  Biso   1.000  C
  C6       1.0000 0.47332  0.09026  0.96310  Biso   1.000  C
  C7       1.0000 0.96310  0.47332  0.47332  Biso   1.000  C
  C8       1.0000 0.09026  0.47332  0.47332  Biso   1.000  C
  C9       1.0000 0.47332  0.09026  0.47332  Biso   1.000  C
  C10      1.0000 0.47332  0.96310  0.47332  Biso   1.000  C
  C11      1.0000 0.96310  0.47332  0.09026  Biso   1.000  C
  C12      1.0000 0.09026  0.47332  0.96310  Biso   1.000  C
  C13      1.0000 0.52668  0.52668  0.03690  Biso   1.000  C
  C14      1.0000 0.52668  0.52668  0.90974  Biso   1.000  C
  C15      1.0000 0.90974  0.03690  0.52668  Biso   1.000  C
  C16      1.0000 0.03690  0.90974  0.52668  Biso   1.000  C
  C17      1.0000 0.03690  0.52668  0.90974  Biso   1.000  C
  C18      1.0000 0.90974  0.52668  0.03690  Biso   1.000  C
  C19      1.0000 0.52668  0.03690  0.52668  Biso   1.000  C
  C20      1.0000 0.52668  0.90974  0.52668  Biso   1.000  C
  C21      1.0000 0.90974  0.52668  0.52668  Biso   1.000  C
  C22      1.0000 0.03690  0.52668  0.52668  Biso   1.000  C
  C23      1.0000 0.52668  0.03690  0.90974  Biso   1.000  C
  C24      1.0000 0.52668  0.90974  0.03690  Biso   1.000  C
  C25      1.0000 0.38870  0.38870  0.11130  Biso   1.000  C
  C26      1.0000 0.44580  0.44580  0.05420  Biso   1.000  C
  C27      1.0000 0.11130  0.11130  0.38870  Biso   1.000  C
  C28      1.0000 0.05420  0.05420  0.44580  Biso   1.000  C
  C29      1.0000 0.38870  0.11130  0.11130  Biso   1.000  C
  C30      1.0000 0.44580  0.05420  0.05420  Biso   1.000  C
  C31      1.0000 0.11130  0.38870  0.38870  Biso   1.000  C
  C32      1.0000 0.05420  0.44580  0.44580  Biso   1.000  C
  C33      1.0000 0.38870  0.11130  0.38870  Biso   1.000  C
  C34      1.0000 0.44580  0.05420  0.44580  Biso   1.000  C
  C35      1.0000 0.11130  0.38870  0.11130  Biso   1.000  C
  C36      1.0000 0.05420  0.44580  0.05420  Biso   1.000  C
  C37      1.0000 0.61130  0.61130  0.88870  Biso   1.000  C
  C38      1.0000 0.55420  0.55420  0.94580  Biso   1.000  C
  C39      1.0000 0.88870  0.88870  0.61130  Biso   1.000  C
  C40      1.0000 0.94580  0.94580  0.55420  Biso   1.000  C
  C41      1.0000 0.88870  0.61130  0.88870  Biso   1.000  C
  C42      1.0000 0.94580  0.55420  0.94580  Biso   1.000  C
  C43      1.0000 0.61130  0.88870  0.61130  Biso   1.000  C
  C44      1.0000 0.55420  0.94580  0.55420  Biso   1.000  C
  C45      1.0000 0.88870  0.61130  0.61130  Biso   1.000  C
  C46      1.0000 0.94580  0.55420  0.55420  Biso   1.000  C
  C47      1.0000 0.61130  0.88870  0.88870  Biso   1.000  C
  C48      1.0000 0.55420  0.94580  0.94580  Biso   1.000  C
  O1       1.0000 0.25000  0.25000  0.25000  Biso   1.000  O
  O2       1.0000 0.75000  0.75000  0.75000  Biso   1.000  O
  O3       1.0000 0.36613  0.36613  0.07303  Biso   1.000  O
  O4       1.0000 0.36613  0.36613  0.19471  Biso   1.000  O
  O5       1.0000 0.07303  0.19471  0.36613  Biso   1.000  O
  O6       1.0000 0.19471  0.07303  0.36613  Biso   1.000  O
  O7       1.0000 0.36613  0.07303  0.19471  Biso   1.000  O
  O8       1.0000 0.36613  0.19471  0.07303  Biso   1.000  O
  O9       1.0000 0.07303  0.36613  0.36613  Biso   1.000  O
  O10      1.0000 0.19471  0.36613  0.36613  Biso   1.000  O
  O11      1.0000 0.36613  0.19471  0.36613  Biso   1.000  O
  O12      1.0000 0.36613  0.07303  0.36613  Biso   1.000  O
  O13      1.0000 0.07303  0.36613  0.19471  Biso   1.000  O
  O14      1.0000 0.19471  0.36613  0.07303  Biso   1.000  O
  O15      1.0000 0.63387  0.63387  0.92697  Biso   1.000  O
  O16      1.0000 0.63387  0.63387  0.80529  Biso   1.000  O
  O17      1.0000 0.80529  0.92697  0.63387  Biso   1.000  O
  O18      1.0000 0.92697  0.80529  0.63387  Biso   1.000  O
  O19      1.0000 0.92697  0.63387  0.80529  Biso   1.000  O
  O20      1.0000 0.80529  0.63387  0.92697  Biso   1.000  O
  O21      1.0000 0.63387  0.92697  0.63387  Biso   1.000  O
  O22      1.0000 0.63387  0.80529  0.63387  Biso   1.000  O
  O23      1.0000 0.80529  0.63387  0.63387  Biso   1.000  O
  O24      1.0000 0.92697  0.63387  0.63387  Biso   1.000  O
  O25      1.0000 0.63387  0.92697  0.80529  Biso   1.000  O
  O26      1.0000 0.63387  0.80529  0.92697  Biso   1.000  O
  Zn9      1.0000 0.50316  0.52072  0.33545  Biso   1.000  Zn
  Zn10     1.0000 0.50316  0.52072  0.50956  Biso   1.000  Zn
  Zn11     1.0000 0.32905  0.52072  0.50956  Biso   1.000  Zn
  Zn12     1.0000 0.50316  0.34661  0.50956  Biso   1.000  Zn
  Zn13     1.0000 0.91516  0.93272  0.09568  Biso   1.000  Zn
  Zn14     1.0000 0.91516  0.93272  0.92156  Biso   1.000  Zn
  Zn15     1.0000 0.91516  0.10683  0.92156  Biso   1.000  Zn
  Zn16     1.0000 0.08927  0.93272  0.92156  Biso   1.000  Zn
  H25      1.0000 0.66505  0.68260  0.15174  Biso   1.000  H
  H26      1.0000 0.66505  0.68260  0.36762  Biso   1.000  H
  H27      1.0000 0.14534  0.37878  0.67145  Biso   1.000  H
  H28      1.0000 0.36122  0.16290  0.67145  Biso   1.000  H
  H29      1.0000 0.66505  0.16290  0.36762  Biso   1.000  H
  H30      1.0000 0.66505  0.37878  0.15174  Biso   1.000  H
  H31      1.0000 0.14534  0.68260  0.67145  Biso   1.000  H
  H32      1.0000 0.36122  0.68260  0.67145  Biso   1.000  H
  H33      1.0000 0.66505  0.37878  0.67145  Biso   1.000  H
  H34      1.0000 0.66505  0.16290  0.67145  Biso   1.000  H
  H35      1.0000 0.14534  0.68260  0.36762  Biso   1.000  H
  H36      1.0000 0.36122  0.68260  0.15174  Biso   1.000  H
  H37      1.0000 0.75328  0.77084  0.27939  Biso   1.000  H
  H38      1.0000 0.75328  0.77084  0.06351  Biso   1.000  H
  H39      1.0000 0.05710  0.29055  0.75968  Biso   1.000  H
  H40      1.0000 0.27299  0.07466  0.75968  Biso   1.000  H
  H41      1.0000 0.27299  0.77084  0.06351  Biso   1.000  H
  H42      1.0000 0.05710  0.77084  0.27939  Biso   1.000  H
  H43      1.0000 0.75328  0.29055  0.75968  Biso   1.000  H
  H44      1.0000 0.75328  0.07466  0.75968  Biso   1.000  H
  H45      1.0000 0.05710  0.77084  0.75968  Biso   1.000  H
  H46      1.0000 0.27299  0.77084  0.75968  Biso   1.000  H
  H47      1.0000 0.75328  0.29055  0.06351  Biso   1.000  H
  H48      1.0000 0.75328  0.07466  0.27939  Biso   1.000  H
  C49      1.0000 0.68271  0.70027  0.17859  Biso   1.000  C
  C50      1.0000 0.68271  0.70027  0.30544  Biso   1.000  C
  C51      1.0000 0.17219  0.31660  0.68911  Biso   1.000  C
  C52      1.0000 0.29904  0.18974  0.68911  Biso   1.000  C
  C53      1.0000 0.68271  0.18974  0.30544  Biso   1.000  C
  C54      1.0000 0.68271  0.31660  0.17859  Biso   1.000  C
  C55      1.0000 0.17219  0.70027  0.68911  Biso   1.000  C
  C56      1.0000 0.29904  0.70027  0.68911  Biso   1.000  C
  C57      1.0000 0.68271  0.31660  0.68911  Biso   1.000  C
  C58      1.0000 0.68271  0.18974  0.68911  Biso   1.000  C
  C59      1.0000 0.17219  0.70027  0.30544  Biso   1.000  C
  C60      1.0000 0.29904  0.70027  0.17859  Biso   1.000  C
  C61      1.0000 0.73561  0.75317  0.25254  Biso   1.000  C
  C62      1.0000 0.73561  0.75317  0.12569  Biso   1.000  C
  C63      1.0000 0.11929  0.26370  0.74201  Biso   1.000  C
  C64      1.0000 0.24614  0.13684  0.74201  Biso   1.000  C
  C65      1.0000 0.24614  0.75317  0.12569  Biso   1.000  C
  C66      1.0000 0.11929  0.75317  0.25254  Biso   1.000  C
  C67      1.0000 0.73561  0.26370  0.74201  Biso   1.000  C
  C68      1.0000 0.73561  0.13684  0.74201  Biso   1.000  C
  C69      1.0000 0.11929  0.75317  0.74201  Biso   1.000  C
  C70      1.0000 0.24614  0.75317  0.74201  Biso   1.000  C
  C71      1.0000 0.73561  0.26370  0.12569  Biso   1.000  C
  C72      1.0000 0.73561  0.13684  0.25254  Biso   1.000  C
  C73      1.0000 0.59787  0.61543  0.32780  Biso   1.000  C
  C74      1.0000 0.65586  0.67342  0.26981  Biso   1.000  C
  C75      1.0000 0.32140  0.33896  0.60428  Biso   1.000  C
  C76      1.0000 0.26341  0.28097  0.66227  Biso   1.000  C
  C77      1.0000 0.59787  0.33896  0.32780  Biso   1.000  C
  C78      1.0000 0.65586  0.28097  0.26981  Biso   1.000  C
  C79      1.0000 0.32140  0.61543  0.60428  Biso   1.000  C
  C80      1.0000 0.26341  0.67342  0.66227  Biso   1.000  C
  C81      1.0000 0.59787  0.33896  0.60428  Biso   1.000  C
  C82      1.0000 0.65586  0.28097  0.66227  Biso   1.000  C
  C83      1.0000 0.32140  0.61543  0.32780  Biso   1.000  C
  C84      1.0000 0.26341  0.67342  0.26981  Biso   1.000  C
  C85      1.0000 0.82045  0.83801  0.10333  Biso   1.000  C
  C86      1.0000 0.76246  0.78002  0.16132  Biso   1.000  C
  C87      1.0000 0.09693  0.11449  0.82685  Biso   1.000  C
  C88      1.0000 0.15492  0.17248  0.76886  Biso   1.000  C
  C89      1.0000 0.09693  0.83801  0.10333  Biso   1.000  C
  C90      1.0000 0.15492  0.78002  0.16132  Biso   1.000  C
  C91      1.0000 0.82045  0.11449  0.82685  Biso   1.000  C
  C92      1.0000 0.76246  0.17248  0.76886  Biso   1.000  C
  C93      1.0000 0.09693  0.83801  0.82685  Biso   1.000  C
  C94      1.0000 0.15492  0.78002  0.76886  Biso   1.000  C
  C95      1.0000 0.82045  0.11449  0.10333  Biso   1.000  C
  C96      1.0000 0.76246  0.17248  0.16132  Biso   1.000  C
  O27      1.0000 0.45964  0.47719  0.46604  Biso   1.000  O
  O28      1.0000 0.95869  0.97625  0.96509  Biso   1.000  O
  O29      1.0000 0.57551  0.59306  0.28988  Biso   1.000  O
  O30      1.0000 0.57551  0.59306  0.41045  Biso   1.000  O
  O31      1.0000 0.28348  0.42161  0.58191  Biso   1.000  O
  O32      1.0000 0.40405  0.30104  0.58191  Biso   1.000  O
  O33      1.0000 0.57551  0.30104  0.41045  Biso   1.000  O
  O34      1.0000 0.57551  0.42161  0.28988  Biso   1.000  O
  O35      1.0000 0.28348  0.59306  0.58191  Biso   1.000  O
  O36      1.0000 0.40405  0.59306  0.58191  Biso   1.000  O
  O37      1.0000 0.57551  0.42161  0.58191  Biso   1.000  O
  O38      1.0000 0.57551  0.30104  0.58191  Biso   1.000  O
  O39      1.0000 0.28348  0.59306  0.41045  Biso   1.000  O
  O40      1.0000 0.40405  0.59306  0.28988  Biso   1.000  O
  O41      1.0000 0.84282  0.86038  0.14125  Biso   1.000  O
  O42      1.0000 0.84282  0.86038  0.02068  Biso   1.000  O
  O43      1.0000 0.01428  0.15241  0.84922  Biso   1.000  O
  O44      1.0000 0.13485  0.03183  0.84922  Biso   1.000  O
  O45      1.0000 0.13485  0.86038  0.02068  Biso   1.000  O
  O46      1.0000 0.01428  0.86038  0.14125  Biso   1.000  O
  O47      1.0000 0.84282  0.15241  0.84922  Biso   1.000  O
  O48      1.0000 0.84282  0.03183  0.84922  Biso   1.000  O
  O49      1.0000 0.01428  0.86038  0.84922  Biso   1.000  O
  O50      1.0000 0.13485  0.86038  0.84922  Biso   1.000  O
  O51      1.0000 0.84282  0.15240  0.02068  Biso   1.000  O
