data_image0
_cell_length_a       18.2115
_cell_length_b       18.2115
_cell_length_c       18.2115
_cell_angle_alpha    60
_cell_angle_beta     60
_cell_angle_gamma    60

_symmetry_space_group_name_H-M    "P 1"
_symmetry_int_tables_number       1

loop_
  _symmetry_equiv_pos_as_xyz
  'x, y, z'

loop_
  _atom_site_label
  _atom_site_occupancy
  _atom_site_fract_x
  _atom_site_fract_y
  _atom_site_fract_z
  _atom_site_thermal_displace_type
  _atom_site_B_iso_or_equiv
  _atom_site_type_symbol
  Zn1      1.0000 0.29361  0.29361  0.11917  Biso   1.000  Zn
  Zn2      1.0000 0.29361  0.29361  0.29361  Biso   1.000  Zn
  Zn3      1.0000 0.11917  0.29361  0.29361  Biso   1.000  Zn
  Zn4      1.0000 0.29361  0.11917  0.29361  Biso   1.000  Zn
  Zn5      1.0000 0.70639  0.70639  0.88083  Biso   1.000  Zn
  Zn6      1.0000 0.70639  0.70639  0.70639  Biso   1.000  Zn
  Zn7      1.0000 0.70639  0.88083  0.70639  Biso   1.000  Zn
  Zn8      1.0000 0.88083  0.70639  0.70639  Biso   1.000  Zn
  H1       1.0000 0.45530  0.45530  0.93770  Biso   1.000  H
  H2       1.0000 0.45530  0.45530  0.15170  Biso   1.000  H
  H3       1.0000 0.93770  0.15170  0.45530  Biso   1.000  H
  H4       1.0000 0.15170  0.93770  0.45530  Biso   1.000  H
  H5       1.0000 0.45530  0.93770  0.15170  Biso   1.000  H
  H6       1.0000 0.45530  0.15170  0.93770  Biso   1.000  H
  H7       1.0000 0.93770  0.45530  0.45530  Biso   1.000  H
  H8       1.0000 0.15170  0.45530  0.45530  Biso   1.000  H
  H9       1.0000 0.45530  0.15170  0.45530  Biso   1.000  H
  H10      1.0000 0.45530  0.93770  0.45530  Biso   1.000  H
  H11      1.0000 0.93770  0.45530  0.15170  Biso   1.000  H
  H12      1.0000 0.15170  0.45530  0.93770  Biso   1.000  H
  H13      1.0000 0.54470  0.54470  0.06230  Biso   1.000  H
  H14      1.0000 0.54470  0.54470  0.84830  Biso   1.000  H
  H15      1.0000 0.84830  0.06230  0.54470  Biso   1.000  H
  H16      1.0000 0.06230  0.84830  0.54470  Biso   1.000  H
  H17      1.0000 0.06230  0.54470  0.84830  Biso   1.000  H
  H18      1.0000 0.84830  0.54470  0.06230  Biso   1.000  H
  H19      1.0000 0.54470  0.06230  0.54470  Biso   1.000  H
  H20      1.0000 0.54470  0.84830  0.54470  Biso   1.000  H
  H21      1.0000 0.84830  0.54470  0.54470  Biso   1.000  H
  H22      1.0000 0.06230  0.54470  0.54470  Biso   1.000  H
  H23      1.0000 0.54470  0.06230  0.84830  Biso   1.000  H
  H24      1.0000 0.54470  0.84830  0.06230  Biso   1.000  H
  C1       1.0000 0.47300  0.47300  0.96450  Biso   1.000  C
  C2       1.0000 0.47300  0.47300  0.08950  Biso   1.000  C
  C3       1.0000 0.96450  0.08950  0.47300  Biso   1.000  C
  C4       1.0000 0.08950  0.96450  0.47300  Biso   1.000  C
  C5       1.0000 0.47300  0.96450  0.08950  Biso   1.000  C
  C6       1.0000 0.47300  0.08950  0.96450  Biso   1.000  C
  C7       1.0000 0.96450  0.47300  0.47300  Biso   1.000  C
  C8       1.0000 0.08950  0.47300  0.47300  Biso   1.000  C
  C9       1.0000 0.47300  0.08950  0.47300  Biso   1.000  C
  C10      1.0000 0.47300  0.96450  0.47300  Biso   1.000  C
  C11      1.0000 0.96450  0.47300  0.08950  Biso   1.000  C
  C12      1.0000 0.08950  0.47300  0.96450  Biso   1.000  C
  C13      1.0000 0.52700  0.52700  0.03550  Biso   1.000  C
  C14      1.0000 0.52700  0.52700  0.91050  Biso   1.000  C
  C15      1.0000 0.91050  0.03550  0.52700  Biso   1.000  C
  C16      1.0000 0.03550  0.91050  0.52700  Biso   1.000  C
  C17      1.0000 0.03550  0.52700  0.91050  Biso   1.000  C
  C18      1.0000 0.91050  0.52700  0.03550  Biso   1.000  C
  C19      1.0000 0.52700  0.03550  0.52700  Biso   1.000  C
  C20      1.0000 0.52700  0.91050  0.52700  Biso   1.000  C
  C21      1.0000 0.91050  0.52700  0.52700  Biso   1.000  C
  C22      1.0000 0.03550  0.52700  0.52700  Biso   1.000  C
  C23      1.0000 0.52700  0.03550  0.91050  Biso   1.000  C
  C24      1.0000 0.52700  0.91050  0.03550  Biso   1.000  C
  C25      1.0000 0.38860  0.38860  0.11140  Biso   1.000  C
  C26      1.0000 0.44600  0.44600  0.05400  Biso   1.000  C
  C27      1.0000 0.11140  0.11140  0.38860  Biso   1.000  C
  C28      1.0000 0.05400  0.05400  0.44600  Biso   1.000  C
  C29      1.0000 0.38860  0.11140  0.11140  Biso   1.000  C
  C30      1.0000 0.44600  0.05400  0.05400  Biso   1.000  C
  C31      1.0000 0.11140  0.38860  0.38860  Biso   1.000  C
  C32      1.0000 0.05400  0.44600  0.44600  Biso   1.000  C
  C33      1.0000 0.38860  0.11140  0.38860  Biso   1.000  C
  C34      1.0000 0.44600  0.05400  0.44600  Biso   1.000  C
  C35      1.0000 0.11140  0.38860  0.11140  Biso   1.000  C
  C36      1.0000 0.05400  0.44600  0.05400  Biso   1.000  C
  C37      1.0000 0.61140  0.61140  0.88860  Biso   1.000  C
  C38      1.0000 0.55400  0.55400  0.94600  Biso   1.000  C
  C39      1.0000 0.88860  0.88860  0.61140  Biso   1.000  C
  C40      1.0000 0.94600  0.94600  0.55400  Biso   1.000  C
  C41      1.0000 0.88860  0.61140  0.88860  Biso   1.000  C
  C42      1.0000 0.94600  0.55400  0.94600  Biso   1.000  C
  C43      1.0000 0.61140  0.88860  0.61140  Biso   1.000  C
  C44      1.0000 0.55400  0.94600  0.55400  Biso   1.000  C
  C45      1.0000 0.88860  0.61140  0.61140  Biso   1.000  C
  C46      1.0000 0.94600  0.55400  0.55400  Biso   1.000  C
  C47      1.0000 0.61140  0.88860  0.88860  Biso   1.000  C
  C48      1.0000 0.55400  0.94600  0.94600  Biso   1.000  C
  O1       1.0000 0.25000  0.25000  0.25000  Biso   1.000  O
  O2       1.0000 0.75000  0.75000  0.75000  Biso   1.000  O
  O3       1.0000 0.36611  0.36611  0.07317  Biso   1.000  O
  O4       1.0000 0.36611  0.36611  0.19461  Biso   1.000  O
  O5       1.0000 0.07317  0.19461  0.36611  Biso   1.000  O
  O6       1.0000 0.19461  0.07317  0.36611  Biso   1.000  O
  O7       1.0000 0.36611  0.07317  0.19461  Biso   1.000  O
  O8       1.0000 0.36611  0.19461  0.07317  Biso   1.000  O
  O9       1.0000 0.07317  0.36611  0.36611  Biso   1.000  O
  O10      1.0000 0.19461  0.36611  0.36611  Biso   1.000  O
  O11      1.0000 0.36611  0.19461  0.36611  Biso   1.000  O
  O12      1.0000 0.36611  0.07317  0.36611  Biso   1.000  O
  O13      1.0000 0.07317  0.36611  0.19461  Biso   1.000  O
  O14      1.0000 0.19461  0.36611  0.07317  Biso   1.000  O
  O15      1.0000 0.63389  0.63389  0.92683  Biso   1.000  O
  O16      1.0000 0.63389  0.63389  0.80539  Biso   1.000  O
  O17      1.0000 0.80539  0.92683  0.63389  Biso   1.000  O
  O18      1.0000 0.92683  0.80539  0.63389  Biso   1.000  O
  O19      1.0000 0.92683  0.63389  0.80539  Biso   1.000  O
  O20      1.0000 0.80539  0.63389  0.92683  Biso   1.000  O
  O21      1.0000 0.63389  0.92683  0.63389  Biso   1.000  O
  O22      1.0000 0.63389  0.80539  0.63389  Biso   1.000  O
  O23      1.0000 0.80539  0.63389  0.63389  Biso   1.000  O
  O24      1.0000 0.92683  0.63389  0.63389  Biso   1.000  O
  O25      1.0000 0.63389  0.92683  0.80539  Biso   1.000  O
  O26      1.0000 0.63389  0.80539  0.92683  Biso   1.000  O
  Zn9      1.0000 0.68767  0.35032  0.47076  Biso   1.000  Zn
  Zn10     1.0000 0.09894  0.76158  0.05948  Biso   1.000  Zn
  Zn11     1.0000 0.92419  0.93633  0.05948  Biso   1.000  Zn
  Zn12     1.0000 0.51292  0.52507  0.47076  Biso   1.000  Zn
  Zn13     1.0000 0.51272  0.35012  0.64565  Biso   1.000  Zn
  Zn14     1.0000 0.51285  0.35025  0.47055  Biso   1.000  Zn
  Zn15     1.0000 0.09914  0.93653  0.88459  Biso   1.000  Zn
  Zn16     1.0000 0.09901  0.93640  0.05969  Biso   1.000  Zn
  H25      1.0000 0.34984  0.70616  0.61247  Biso   1.000  H
  H26      1.0000 0.34671  0.49180  0.82686  Biso   1.000  H
  H27      1.0000 0.35346  0.70418  0.30928  Biso   1.000  H
  H28      1.0000 0.35295  0.49062  0.30397  Biso   1.000  H
  H29      1.0000 0.86788  0.49122  0.31109  Biso   1.000  H
  H30      1.0000 0.74309  0.09942  0.91776  Biso   1.000  H
  H31      1.0000 0.95746  0.10254  0.70338  Biso   1.000  H
  H32      1.0000 0.74507  0.09580  0.22095  Biso   1.000  H
  H33      1.0000 0.95863  0.09630  0.22627  Biso   1.000  H
  H34      1.0000 0.95803  0.58137  0.21915  Biso   1.000  H
  H35      1.0000 0.26202  0.58049  0.91776  Biso   1.000  H
  H36      1.0000 0.26514  0.79486  0.70338  Biso   1.000  H
  H37      1.0000 0.25839  0.58248  0.22095  Biso   1.000  H
  H38      1.0000 0.25890  0.79603  0.22627  Biso   1.000  H
  H39      1.0000 0.74398  0.79543  0.21915  Biso   1.000  H
  H40      1.0000 0.86877  0.18723  0.61247  Biso   1.000  H
  H41      1.0000 0.65440  0.18411  0.82686  Biso   1.000  H
  H42      1.0000 0.86678  0.19086  0.30928  Biso   1.000  H
  H43      1.0000 0.65322  0.19035  0.30397  Biso   1.000  H
  H44      1.0000 0.65383  0.70528  0.31109  Biso   1.000  H
  H45      1.0000 0.35114  0.18853  0.61177  Biso   1.000  H
  H46      1.0000 0.34842  0.18582  0.83077  Biso   1.000  H
  H47      1.0000 0.26072  0.09812  0.91847  Biso   1.000  H
  H48      1.0000 0.26344  0.10084  0.69947  Biso   1.000  H
  C49      1.0000 0.41798  0.53480  0.65126  Biso   1.000  C
  C50      1.0000 0.35904  0.59192  0.71180  Biso   1.000  C
  C51      1.0000 0.33290  0.67960  0.67491  Biso   1.000  C
  C52      1.0000 0.33108  0.55414  0.80120  Biso   1.000  C
  C53      1.0000 0.41840  0.53361  0.37403  Biso   1.000  C
  C54      1.0000 0.36237  0.58944  0.31700  Biso   1.000  C
  C55      1.0000 0.33452  0.67842  0.29174  Biso   1.000  C
  C56      1.0000 0.33411  0.55276  0.28833  Biso   1.000  C
  C57      1.0000 0.84152  0.55346  0.29154  Biso   1.000  C
  C58      1.0000 0.91446  0.03127  0.87898  Biso   1.000  C
  C59      1.0000 0.85733  0.09021  0.81844  Biso   1.000  C
  C60      1.0000 0.76965  0.11636  0.85532  Biso   1.000  C
  C61      1.0000 0.89512  0.11817  0.72904  Biso   1.000  C
  C62      1.0000 0.91564  0.03086  0.15621  Biso   1.000  C
  C63      1.0000 0.85982  0.08688  0.21324  Biso   1.000  C
  C64      1.0000 0.77083  0.11474  0.23849  Biso   1.000  C
  C65      1.0000 0.89649  0.11514  0.24190  Biso   1.000  C
  C66      1.0000 0.89579  0.60773  0.23869  Biso   1.000  C
  C67      1.0000 0.19388  0.75185  0.87898  Biso   1.000  C
  C68      1.0000 0.25281  0.69473  0.81844  Biso   1.000  C
  C69      1.0000 0.27896  0.60705  0.85532  Biso   1.000  C
  C70      1.0000 0.28078  0.73252  0.72904  Biso   1.000  C
  C71      1.0000 0.19346  0.75304  0.15621  Biso   1.000  C
  C72      1.0000 0.24948  0.69721  0.21324  Biso   1.000  C
  C73      1.0000 0.27733  0.60823  0.23849  Biso   1.000  C
  C74      1.0000 0.27774  0.73389  0.24190  Biso   1.000  C
  C75      1.0000 0.77033  0.73319  0.23869  Biso   1.000  C
  C76      1.0000 0.69740  0.25538  0.65126  Biso   1.000  C
  C77      1.0000 0.75452  0.19645  0.71180  Biso   1.000  C
  C78      1.0000 0.84221  0.17029  0.67491  Biso   1.000  C
  C79      1.0000 0.71673  0.16848  0.80120  Biso   1.000  C
  C80      1.0000 0.69621  0.25580  0.37403  Biso   1.000  C
  C81      1.0000 0.75204  0.19977  0.31700  Biso   1.000  C
  C82      1.0000 0.84103  0.17191  0.29174  Biso   1.000  C
  C83      1.0000 0.71536  0.17151  0.28833  Biso   1.000  C
  C84      1.0000 0.71607  0.67892  0.29154  Biso   1.000  C
  C85      1.0000 0.41628  0.25368  0.65787  Biso   1.000  C
  C86      1.0000 0.36005  0.19745  0.71099  Biso   1.000  C
  C87      1.0000 0.33339  0.17079  0.67391  Biso   1.000  C
  C88      1.0000 0.33098  0.16838  0.80320  Biso   1.000  C
  C89      1.0000 0.69330  0.53071  0.37924  Biso   1.000  C
  C90      1.0000 0.75364  0.59104  0.31710  Biso   1.000  C
  C91      1.0000 0.19558  0.03298  0.87236  Biso   1.000  C
  C92      1.0000 0.25181  0.08920  0.81924  Biso   1.000  C
  C93      1.0000 0.27846  0.11586  0.85632  Biso   1.000  C
  C94      1.0000 0.28087  0.11827  0.72703  Biso   1.000  C
  C95      1.0000 0.91855  0.75595  0.15099  Biso   1.000  C
  C96      1.0000 0.85822  0.69561  0.21314  Biso   1.000  C
  O27      1.0000 0.43812  0.44891  0.69486  Biso   1.000  O
  O28      1.0000 0.44053  0.57540  0.56837  Biso   1.000  O
  O29      1.0000 0.43784  0.44782  0.39939  Biso   1.000  O
  O30      1.0000 0.44004  0.57390  0.39658  Biso   1.000  O
  O31      1.0000 0.73580  0.44752  0.39888  Biso   1.000  O
  O32      1.0000 0.00035  0.01113  0.83538  Biso   1.000  O
  O33      1.0000 0.87386  0.00872  0.96186  Biso   1.000  O
  O34      1.0000 0.00143  0.01141  0.13085  Biso   1.000  O
  O35      1.0000 0.87536  0.00921  0.13366  Biso   1.000  O
  O36      1.0000 0.00174  0.71345  0.13135  Biso   1.000  O
  O37      1.0000 0.17373  0.83774  0.83538  Biso   1.000  O
  O38      1.0000 0.17132  0.71126  0.96186  Biso   1.000  O
  O39      1.0000 0.17402  0.83883  0.13085  Biso   1.000  O
  O40      1.0000 0.17181  0.71275  0.13366  Biso   1.000  O
  O41      1.0000 0.87606  0.83913  0.13135  Biso   1.000  O
  O42      1.0000 0.61151  0.27552  0.69486  Biso   1.000  O
  O43      1.0000 0.73799  0.27794  0.56837  Biso   1.000  O
  O44      1.0000 0.61042  0.27524  0.39939  Biso   1.000  O
  O45      1.0000 0.73650  0.27744  0.39658  Biso   1.000  O
  O46      1.0000 0.61012  0.57320  0.39888  Biso   1.000  O
  O47      1.0000 0.55639  0.39379  0.51475  Biso   1.000  O
  O48      1.0000 0.43953  0.27693  0.69386  Biso   1.000  O
  O49      1.0000 0.43793  0.27533  0.57308  Biso   1.000  O
  O50      1.0000 0.05546  0.89286  0.01549  Biso   1.000  O
  O51      1.0000 0.17233  0.00973  0.83638  Biso   1.000  O
