data_image0
_cell_length_a       18.2662
_cell_length_b       18.2662
_cell_length_c       18.2662
_cell_angle_alpha    60
_cell_angle_beta     60
_cell_angle_gamma    60

_symmetry_space_group_name_H-M    "P 1"
_symmetry_int_tables_number       1

loop_
  _symmetry_equiv_pos_as_xyz
  'x, y, z'

loop_
  _atom_site_label
  _atom_site_occupancy
  _atom_site_fract_x
  _atom_site_fract_y
  _atom_site_fract_z
  _atom_site_thermal_displace_type
  _atom_site_B_iso_or_equiv
  _atom_site_type_symbol
  Zn1      1.0000 0.29353  0.29352  0.11943  Biso   1.000  Zn
  Zn2      1.0000 0.29353  0.29352  0.29352  Biso   1.000  Zn
  Zn3      1.0000 0.11944  0.29352  0.29352  Biso   1.000  Zn
  Zn4      1.0000 0.29353  0.11943  0.29352  Biso   1.000  Zn
  Zn5      1.0000 0.70647  0.70648  0.88057  Biso   1.000  Zn
  Zn6      1.0000 0.70647  0.70648  0.70648  Biso   1.000  Zn
  Zn7      1.0000 0.70647  0.88057  0.70648  Biso   1.000  Zn
  Zn8      1.0000 0.88056  0.70648  0.70648  Biso   1.000  Zn
  H1       1.0000 0.45570  0.45570  0.93590  Biso   1.000  H
  H2       1.0000 0.45570  0.45570  0.15270  Biso   1.000  H
  H3       1.0000 0.93590  0.15270  0.45570  Biso   1.000  H
  H4       1.0000 0.15270  0.93590  0.45570  Biso   1.000  H
  H5       1.0000 0.45570  0.93590  0.15270  Biso   1.000  H
  H6       1.0000 0.45570  0.15270  0.93590  Biso   1.000  H
  H7       1.0000 0.93590  0.45570  0.45570  Biso   1.000  H
  H8       1.0000 0.15270  0.45570  0.45570  Biso   1.000  H
  H9       1.0000 0.45570  0.15270  0.45570  Biso   1.000  H
  H10      1.0000 0.45570  0.93590  0.45570  Biso   1.000  H
  H11      1.0000 0.93590  0.45570  0.15270  Biso   1.000  H
  H12      1.0000 0.15270  0.45570  0.93590  Biso   1.000  H
  H13      1.0000 0.54430  0.54430  0.06410  Biso   1.000  H
  H14      1.0000 0.54430  0.54430  0.84730  Biso   1.000  H
  H15      1.0000 0.84730  0.06410  0.54430  Biso   1.000  H
  H16      1.0000 0.06410  0.84730  0.54430  Biso   1.000  H
  H17      1.0000 0.06410  0.54430  0.84730  Biso   1.000  H
  H18      1.0000 0.84730  0.54430  0.06410  Biso   1.000  H
  H19      1.0000 0.54430  0.06410  0.54430  Biso   1.000  H
  H20      1.0000 0.54430  0.84730  0.54430  Biso   1.000  H
  H21      1.0000 0.84730  0.54430  0.54430  Biso   1.000  H
  H22      1.0000 0.06410  0.54430  0.54430  Biso   1.000  H
  H23      1.0000 0.54430  0.06410  0.84730  Biso   1.000  H
  H24      1.0000 0.54430  0.84730  0.06410  Biso   1.000  H
  C1       1.0000 0.47342  0.47342  0.96246  Biso   1.000  C
  C2       1.0000 0.47342  0.47342  0.09070  Biso   1.000  C
  C3       1.0000 0.96246  0.09070  0.47342  Biso   1.000  C
  C4       1.0000 0.09070  0.96246  0.47342  Biso   1.000  C
  C5       1.0000 0.47342  0.96246  0.09070  Biso   1.000  C
  C6       1.0000 0.47342  0.09070  0.96246  Biso   1.000  C
  C7       1.0000 0.96246  0.47342  0.47342  Biso   1.000  C
  C8       1.0000 0.09070  0.47342  0.47342  Biso   1.000  C
  C9       1.0000 0.47342  0.09070  0.47342  Biso   1.000  C
  C10      1.0000 0.47342  0.96246  0.47342  Biso   1.000  C
  C11      1.0000 0.96246  0.47342  0.09070  Biso   1.000  C
  C12      1.0000 0.09070  0.47342  0.96246  Biso   1.000  C
  C13      1.0000 0.52658  0.52658  0.03754  Biso   1.000  C
  C14      1.0000 0.52658  0.52658  0.90930  Biso   1.000  C
  C15      1.0000 0.90930  0.03754  0.52658  Biso   1.000  C
  C16      1.0000 0.03754  0.90930  0.52658  Biso   1.000  C
  C17      1.0000 0.03754  0.52658  0.90930  Biso   1.000  C
  C18      1.0000 0.90930  0.52658  0.03754  Biso   1.000  C
  C19      1.0000 0.52658  0.03754  0.52658  Biso   1.000  C
  C20      1.0000 0.52658  0.90930  0.52658  Biso   1.000  C
  C21      1.0000 0.90930  0.52658  0.52658  Biso   1.000  C
  C22      1.0000 0.03754  0.52658  0.52658  Biso   1.000  C
  C23      1.0000 0.52658  0.03754  0.90930  Biso   1.000  C
  C24      1.0000 0.52658  0.90930  0.03754  Biso   1.000  C
  C25      1.0000 0.38858  0.38858  0.11142  Biso   1.000  C
  C26      1.0000 0.44625  0.44625  0.05375  Biso   1.000  C
  C27      1.0000 0.11142  0.11142  0.38858  Biso   1.000  C
  C28      1.0000 0.05375  0.05375  0.44625  Biso   1.000  C
  C29      1.0000 0.38858  0.11142  0.11142  Biso   1.000  C
  C30      1.0000 0.44625  0.05375  0.05375  Biso   1.000  C
  C31      1.0000 0.11142  0.38858  0.38858  Biso   1.000  C
  C32      1.0000 0.05375  0.44625  0.44625  Biso   1.000  C
  C33      1.0000 0.38858  0.11142  0.38858  Biso   1.000  C
  C34      1.0000 0.44625  0.05375  0.44625  Biso   1.000  C
  C35      1.0000 0.11142  0.38858  0.11142  Biso   1.000  C
  C36      1.0000 0.05375  0.44625  0.05375  Biso   1.000  C
  C37      1.0000 0.61142  0.61142  0.88858  Biso   1.000  C
  C38      1.0000 0.55375  0.55375  0.94625  Biso   1.000  C
  C39      1.0000 0.88858  0.88858  0.61142  Biso   1.000  C
  C40      1.0000 0.94625  0.94625  0.55375  Biso   1.000  C
  C41      1.0000 0.88858  0.61142  0.88858  Biso   1.000  C
  C42      1.0000 0.94625  0.55375  0.94625  Biso   1.000  C
  C43      1.0000 0.61142  0.88858  0.61142  Biso   1.000  C
  C44      1.0000 0.55375  0.94625  0.55375  Biso   1.000  C
  C45      1.0000 0.88858  0.61142  0.61142  Biso   1.000  C
  C46      1.0000 0.94625  0.55375  0.55375  Biso   1.000  C
  C47      1.0000 0.61142  0.88858  0.88858  Biso   1.000  C
  C48      1.0000 0.55375  0.94625  0.94625  Biso   1.000  C
  O1       1.0000 0.25000  0.25000  0.25000  Biso   1.000  O
  O2       1.0000 0.75000  0.75000  0.75000  Biso   1.000  O
  O3       1.0000 0.36617  0.36617  0.07287  Biso   1.000  O
  O4       1.0000 0.36617  0.36617  0.19479  Biso   1.000  O
  O5       1.0000 0.07287  0.19479  0.36617  Biso   1.000  O
  O6       1.0000 0.19479  0.07287  0.36617  Biso   1.000  O
  O7       1.0000 0.36617  0.07287  0.19479  Biso   1.000  O
  O8       1.0000 0.36617  0.19479  0.07287  Biso   1.000  O
  O9       1.0000 0.07287  0.36617  0.36617  Biso   1.000  O
  O10      1.0000 0.19479  0.36617  0.36617  Biso   1.000  O
  O11      1.0000 0.36617  0.19479  0.36617  Biso   1.000  O
  O12      1.0000 0.36617  0.07287  0.36617  Biso   1.000  O
  O13      1.0000 0.07287  0.36617  0.19479  Biso   1.000  O
  O14      1.0000 0.19479  0.36617  0.07287  Biso   1.000  O
  O15      1.0000 0.63383  0.63383  0.92713  Biso   1.000  O
  O16      1.0000 0.63383  0.63383  0.80521  Biso   1.000  O
  O17      1.0000 0.80521  0.92713  0.63383  Biso   1.000  O
  O18      1.0000 0.92713  0.80521  0.63383  Biso   1.000  O
  O19      1.0000 0.92713  0.63383  0.80521  Biso   1.000  O
  O20      1.0000 0.80521  0.63383  0.92713  Biso   1.000  O
  O21      1.0000 0.63383  0.92713  0.63383  Biso   1.000  O
  O22      1.0000 0.63383  0.80521  0.63383  Biso   1.000  O
  O23      1.0000 0.80521  0.63383  0.63383  Biso   1.000  O
  O24      1.0000 0.92713  0.63383  0.63383  Biso   1.000  O
  O25      1.0000 0.63383  0.92713  0.80521  Biso   1.000  O
  O26      1.0000 0.63383  0.80521  0.92713  Biso   1.000  O
  Zn9      1.0000 0.50286  0.52040  0.33525  Biso   1.000  Zn
  Zn10     1.0000 0.50286  0.52040  0.50923  Biso   1.000  Zn
  Zn11     1.0000 0.32887  0.52040  0.50923  Biso   1.000  Zn
  Zn12     1.0000 0.50286  0.34642  0.50923  Biso   1.000  Zn
  Zn13     1.0000 0.91505  0.93258  0.09539  Biso   1.000  Zn
  Zn14     1.0000 0.91505  0.93258  0.92141  Biso   1.000  Zn
  Zn15     1.0000 0.91505  0.10656  0.92141  Biso   1.000  Zn
  Zn16     1.0000 0.08903  0.93258  0.92141  Biso   1.000  Zn
  H25      1.0000 0.66503  0.68256  0.15099  Biso   1.000  H
  H26      1.0000 0.66503  0.68256  0.36750  Biso   1.000  H
  H27      1.0000 0.14463  0.37867  0.67139  Biso   1.000  H
  H28      1.0000 0.36113  0.16217  0.67139  Biso   1.000  H
  H29      1.0000 0.66503  0.16217  0.36750  Biso   1.000  H
  H30      1.0000 0.66503  0.37867  0.15099  Biso   1.000  H
  H31      1.0000 0.14463  0.68256  0.67139  Biso   1.000  H
  H32      1.0000 0.36113  0.68256  0.67139  Biso   1.000  H
  H33      1.0000 0.66503  0.37867  0.67139  Biso   1.000  H
  H34      1.0000 0.66503  0.16217  0.67139  Biso   1.000  H
  H35      1.0000 0.14463  0.68256  0.36750  Biso   1.000  H
  H36      1.0000 0.36113  0.68256  0.15099  Biso   1.000  H
  H37      1.0000 0.75288  0.77042  0.27964  Biso   1.000  H
  H38      1.0000 0.75288  0.77042  0.06314  Biso   1.000  H
  H39      1.0000 0.05677  0.29081  0.75924  Biso   1.000  H
  H40      1.0000 0.27328  0.07431  0.75924  Biso   1.000  H
  H41      1.0000 0.27328  0.77042  0.06314  Biso   1.000  H
  H42      1.0000 0.05677  0.77042  0.27964  Biso   1.000  H
  H43      1.0000 0.75288  0.29081  0.75924  Biso   1.000  H
  H44      1.0000 0.75288  0.07431  0.75924  Biso   1.000  H
  H45      1.0000 0.05677  0.77042  0.75924  Biso   1.000  H
  H46      1.0000 0.27328  0.77042  0.75924  Biso   1.000  H
  H47      1.0000 0.75288  0.29081  0.06314  Biso   1.000  H
  H48      1.0000 0.75288  0.07431  0.27964  Biso   1.000  H
  C49      1.0000 0.68260  0.70013  0.17775  Biso   1.000  C
  C50      1.0000 0.68260  0.70013  0.30560  Biso   1.000  C
  C51      1.0000 0.17138  0.31677  0.68896  Biso   1.000  C
  C52      1.0000 0.29923  0.18892  0.68896  Biso   1.000  C
  C53      1.0000 0.68260  0.18892  0.30560  Biso   1.000  C
  C54      1.0000 0.68260  0.31677  0.17775  Biso   1.000  C
  C55      1.0000 0.17138  0.70013  0.68896  Biso   1.000  C
  C56      1.0000 0.29923  0.70013  0.68896  Biso   1.000  C
  C57      1.0000 0.68260  0.31677  0.68896  Biso   1.000  C
  C58      1.0000 0.68260  0.18892  0.68896  Biso   1.000  C
  C59      1.0000 0.17138  0.70013  0.30560  Biso   1.000  C
  C60      1.0000 0.29923  0.70013  0.17775  Biso   1.000  C
  C61      1.0000 0.73531  0.75285  0.25289  Biso   1.000  C
  C62      1.0000 0.73531  0.75285  0.12504  Biso   1.000  C
  C63      1.0000 0.11867  0.26406  0.74167  Biso   1.000  C
  C64      1.0000 0.24652  0.13621  0.74167  Biso   1.000  C
  C65      1.0000 0.24652  0.75285  0.12504  Biso   1.000  C
  C66      1.0000 0.11867  0.75285  0.25289  Biso   1.000  C
  C67      1.0000 0.73531  0.26406  0.74167  Biso   1.000  C
  C68      1.0000 0.73531  0.13621  0.74167  Biso   1.000  C
  C69      1.0000 0.11867  0.75285  0.74167  Biso   1.000  C
  C70      1.0000 0.24652  0.75285  0.74167  Biso   1.000  C
  C71      1.0000 0.73531  0.26406  0.12504  Biso   1.000  C
  C72      1.0000 0.73531  0.13621  0.25289  Biso   1.000  C
  C73      1.0000 0.59774  0.61527  0.32736  Biso   1.000  C
  C74      1.0000 0.65534  0.67288  0.26976  Biso   1.000  C
  C75      1.0000 0.32100  0.33853  0.60410  Biso   1.000  C
  C76      1.0000 0.26339  0.28093  0.66171  Biso   1.000  C
  C77      1.0000 0.59774  0.33853  0.32736  Biso   1.000  C
  C78      1.0000 0.65534  0.28093  0.26976  Biso   1.000  C
  C79      1.0000 0.32100  0.61527  0.60410  Biso   1.000  C
  C80      1.0000 0.26339  0.67288  0.66171  Biso   1.000  C
  C81      1.0000 0.59774  0.33853  0.60410  Biso   1.000  C
  C82      1.0000 0.65534  0.28093  0.66171  Biso   1.000  C
  C83      1.0000 0.32100  0.61527  0.32736  Biso   1.000  C
  C84      1.0000 0.26339  0.67288  0.26976  Biso   1.000  C
  C85      1.0000 0.82017  0.83770  0.10327  Biso   1.000  C
  C86      1.0000 0.76256  0.78010  0.16088  Biso   1.000  C
  C87      1.0000 0.09691  0.11444  0.82653  Biso   1.000  C
  C88      1.0000 0.15451  0.17205  0.76893  Biso   1.000  C
  C89      1.0000 0.09691  0.83770  0.10327  Biso   1.000  C
  C90      1.0000 0.15451  0.78010  0.16088  Biso   1.000  C
  C91      1.0000 0.82017  0.11444  0.82653  Biso   1.000  C
  C92      1.0000 0.76256  0.17205  0.76893  Biso   1.000  C
  C93      1.0000 0.09691  0.83770  0.82653  Biso   1.000  C
  C94      1.0000 0.15451  0.78010  0.76893  Biso   1.000  C
  C95      1.0000 0.82017  0.11444  0.10327  Biso   1.000  C
  C96      1.0000 0.76256  0.17205  0.16088  Biso   1.000  C
  O27      1.0000 0.45937  0.47690  0.46573  Biso   1.000  O
  O28      1.0000 0.95854  0.97607  0.96490  Biso   1.000  O
  O29      1.0000 0.57523  0.59276  0.28926  Biso   1.000  O
  O30      1.0000 0.57523  0.59276  0.41049  Biso   1.000  O
  O31      1.0000 0.28289  0.42167  0.58159  Biso   1.000  O
  O32      1.0000 0.40413  0.30043  0.58159  Biso   1.000  O
  O33      1.0000 0.57523  0.30043  0.41049  Biso   1.000  O
  O34      1.0000 0.57523  0.42167  0.28926  Biso   1.000  O
  O35      1.0000 0.28289  0.59276  0.58159  Biso   1.000  O
  O36      1.0000 0.40413  0.59276  0.58159  Biso   1.000  O
  O37      1.0000 0.57523  0.42167  0.58159  Biso   1.000  O
  O38      1.0000 0.57523  0.30043  0.58159  Biso   1.000  O
  O39      1.0000 0.28289  0.59276  0.41049  Biso   1.000  O
  O40      1.0000 0.40413  0.59276  0.28926  Biso   1.000  O
  O41      1.0000 0.84268  0.86022  0.14138  Biso   1.000  O
  O42      1.0000 0.84268  0.86022  0.02014  Biso   1.000  O
  O43      1.0000 0.01378  0.15255  0.84905  Biso   1.000  O
  O44      1.0000 0.13501  0.03131  0.84905  Biso   1.000  O
  O45      1.0000 0.13501  0.86022  0.02014  Biso   1.000  O
  O46      1.0000 0.01378  0.86022  0.14138  Biso   1.000  O
  O47      1.0000 0.84268  0.15255  0.84905  Biso   1.000  O
  O48      1.0000 0.84268  0.03131  0.84905  Biso   1.000  O
  O49      1.0000 0.01378  0.86022  0.84905  Biso   1.000  O
  O50      1.0000 0.13501  0.86022  0.84905  Biso   1.000  O
  O51      1.0000 0.84268  0.15255  0.02014  Biso   1.000  O
