data_image0
_cell_length_a       18.2455
_cell_length_b       18.2455
_cell_length_c       18.2455
_cell_angle_alpha    60
_cell_angle_beta     60
_cell_angle_gamma    60

_symmetry_space_group_name_H-M    "P 1"
_symmetry_int_tables_number       1

loop_
  _symmetry_equiv_pos_as_xyz
  'x, y, z'

loop_
  _atom_site_label
  _atom_site_occupancy
  _atom_site_fract_x
  _atom_site_fract_y
  _atom_site_fract_z
  _atom_site_thermal_displace_type
  _atom_site_B_iso_or_equiv
  _atom_site_type_symbol
  Zn1      1.0000 0.29354  0.29354  0.11938  Biso   1.000  Zn
  Zn2      1.0000 0.29354  0.29354  0.29354  Biso   1.000  Zn
  Zn3      1.0000 0.11938  0.29354  0.29354  Biso   1.000  Zn
  Zn4      1.0000 0.29354  0.11938  0.29354  Biso   1.000  Zn
  Zn5      1.0000 0.70646  0.70646  0.88062  Biso   1.000  Zn
  Zn6      1.0000 0.70646  0.70646  0.70646  Biso   1.000  Zn
  Zn7      1.0000 0.70646  0.88062  0.70646  Biso   1.000  Zn
  Zn8      1.0000 0.88062  0.70646  0.70646  Biso   1.000  Zn
  H1       1.0000 0.45580  0.45580  0.93620  Biso   1.000  H
  H2       1.0000 0.45580  0.45580  0.15220  Biso   1.000  H
  H3       1.0000 0.93620  0.15220  0.45580  Biso   1.000  H
  H4       1.0000 0.15220  0.93620  0.45580  Biso   1.000  H
  H5       1.0000 0.45580  0.93620  0.15220  Biso   1.000  H
  H6       1.0000 0.45580  0.15220  0.93620  Biso   1.000  H
  H7       1.0000 0.93620  0.45580  0.45580  Biso   1.000  H
  H8       1.0000 0.15220  0.45580  0.45580  Biso   1.000  H
  H9       1.0000 0.45580  0.15220  0.45580  Biso   1.000  H
  H10      1.0000 0.45580  0.93620  0.45580  Biso   1.000  H
  H11      1.0000 0.93620  0.45580  0.15220  Biso   1.000  H
  H12      1.0000 0.15220  0.45580  0.93620  Biso   1.000  H
  H13      1.0000 0.54420  0.54420  0.06380  Biso   1.000  H
  H14      1.0000 0.54420  0.54420  0.84780  Biso   1.000  H
  H15      1.0000 0.84780  0.06380  0.54420  Biso   1.000  H
  H16      1.0000 0.06380  0.84780  0.54420  Biso   1.000  H
  H17      1.0000 0.06380  0.54420  0.84780  Biso   1.000  H
  H18      1.0000 0.84780  0.54420  0.06380  Biso   1.000  H
  H19      1.0000 0.54420  0.06380  0.54420  Biso   1.000  H
  H20      1.0000 0.54420  0.84780  0.54420  Biso   1.000  H
  H21      1.0000 0.84780  0.54420  0.54420  Biso   1.000  H
  H22      1.0000 0.06380  0.54420  0.54420  Biso   1.000  H
  H23      1.0000 0.54420  0.06380  0.84780  Biso   1.000  H
  H24      1.0000 0.54420  0.84780  0.06380  Biso   1.000  H
  C1       1.0000 0.47345  0.47345  0.96303  Biso   1.000  C
  C2       1.0000 0.47345  0.47345  0.09007  Biso   1.000  C
  C3       1.0000 0.96303  0.09007  0.47345  Biso   1.000  C
  C4       1.0000 0.09007  0.96303  0.47345  Biso   1.000  C
  C5       1.0000 0.47345  0.96303  0.09007  Biso   1.000  C
  C6       1.0000 0.47345  0.09007  0.96303  Biso   1.000  C
  C7       1.0000 0.96303  0.47345  0.47345  Biso   1.000  C
  C8       1.0000 0.09007  0.47345  0.47345  Biso   1.000  C
  C9       1.0000 0.47345  0.09007  0.47345  Biso   1.000  C
  C10      1.0000 0.47345  0.96303  0.47345  Biso   1.000  C
  C11      1.0000 0.96303  0.47345  0.09007  Biso   1.000  C
  C12      1.0000 0.09007  0.47345  0.96303  Biso   1.000  C
  C13      1.0000 0.52655  0.52655  0.03697  Biso   1.000  C
  C14      1.0000 0.52655  0.52655  0.90993  Biso   1.000  C
  C15      1.0000 0.90993  0.03697  0.52655  Biso   1.000  C
  C16      1.0000 0.03697  0.90993  0.52655  Biso   1.000  C
  C17      1.0000 0.03697  0.52655  0.90993  Biso   1.000  C
  C18      1.0000 0.90993  0.52655  0.03697  Biso   1.000  C
  C19      1.0000 0.52655  0.03697  0.52655  Biso   1.000  C
  C20      1.0000 0.52655  0.90993  0.52655  Biso   1.000  C
  C21      1.0000 0.90993  0.52655  0.52655  Biso   1.000  C
  C22      1.0000 0.03697  0.52655  0.52655  Biso   1.000  C
  C23      1.0000 0.52655  0.03697  0.90993  Biso   1.000  C
  C24      1.0000 0.52655  0.90993  0.03697  Biso   1.000  C
  C25      1.0000 0.38857  0.38857  0.11143  Biso   1.000  C
  C26      1.0000 0.44620  0.44620  0.05380  Biso   1.000  C
  C27      1.0000 0.11143  0.11143  0.38857  Biso   1.000  C
  C28      1.0000 0.05380  0.05380  0.44620  Biso   1.000  C
  C29      1.0000 0.38857  0.11143  0.11143  Biso   1.000  C
  C30      1.0000 0.44620  0.05380  0.05380  Biso   1.000  C
  C31      1.0000 0.11143  0.38857  0.38857  Biso   1.000  C
  C32      1.0000 0.05380  0.44620  0.44620  Biso   1.000  C
  C33      1.0000 0.38857  0.11143  0.38857  Biso   1.000  C
  C34      1.0000 0.44620  0.05380  0.44620  Biso   1.000  C
  C35      1.0000 0.11143  0.38857  0.11143  Biso   1.000  C
  C36      1.0000 0.05380  0.44620  0.05380  Biso   1.000  C
  C37      1.0000 0.61143  0.61143  0.88857  Biso   1.000  C
  C38      1.0000 0.55380  0.55380  0.94620  Biso   1.000  C
  C39      1.0000 0.88857  0.88857  0.61143  Biso   1.000  C
  C40      1.0000 0.94620  0.94620  0.55380  Biso   1.000  C
  C41      1.0000 0.88857  0.61143  0.88857  Biso   1.000  C
  C42      1.0000 0.94620  0.55380  0.94620  Biso   1.000  C
  C43      1.0000 0.61143  0.88857  0.61143  Biso   1.000  C
  C44      1.0000 0.55380  0.94620  0.55380  Biso   1.000  C
  C45      1.0000 0.88857  0.61143  0.61143  Biso   1.000  C
  C46      1.0000 0.94620  0.55380  0.55380  Biso   1.000  C
  C47      1.0000 0.61143  0.88857  0.88857  Biso   1.000  C
  C48      1.0000 0.55380  0.94620  0.94620  Biso   1.000  C
  O1       1.0000 0.25000  0.25000  0.25000  Biso   1.000  O
  O2       1.0000 0.75000  0.75000  0.75000  Biso   1.000  O
  O3       1.0000 0.36603  0.36603  0.07311  Biso   1.000  O
  O4       1.0000 0.36603  0.36603  0.19483  Biso   1.000  O
  O5       1.0000 0.07311  0.19483  0.36603  Biso   1.000  O
  O6       1.0000 0.19483  0.07311  0.36603  Biso   1.000  O
  O7       1.0000 0.36603  0.07311  0.19483  Biso   1.000  O
  O8       1.0000 0.36603  0.19483  0.07311  Biso   1.000  O
  O9       1.0000 0.07311  0.36603  0.36603  Biso   1.000  O
  O10      1.0000 0.19483  0.36603  0.36603  Biso   1.000  O
  O11      1.0000 0.36603  0.19483  0.36603  Biso   1.000  O
  O12      1.0000 0.36603  0.07311  0.36603  Biso   1.000  O
  O13      1.0000 0.07311  0.36603  0.19483  Biso   1.000  O
  O14      1.0000 0.19483  0.36603  0.07311  Biso   1.000  O
  O15      1.0000 0.63397  0.63397  0.92689  Biso   1.000  O
  O16      1.0000 0.63397  0.63397  0.80517  Biso   1.000  O
  O17      1.0000 0.80517  0.92689  0.63397  Biso   1.000  O
  O18      1.0000 0.92689  0.80517  0.63397  Biso   1.000  O
  O19      1.0000 0.92689  0.63397  0.80517  Biso   1.000  O
  O20      1.0000 0.80517  0.63397  0.92689  Biso   1.000  O
  O21      1.0000 0.63397  0.92689  0.63397  Biso   1.000  O
  O22      1.0000 0.63397  0.80517  0.63397  Biso   1.000  O
  O23      1.0000 0.80517  0.63397  0.63397  Biso   1.000  O
  O24      1.0000 0.92689  0.63397  0.63397  Biso   1.000  O
  O25      1.0000 0.63397  0.92689  0.80517  Biso   1.000  O
  O26      1.0000 0.63397  0.80517  0.92689  Biso   1.000  O
  Zn9      1.0000 0.68639  0.34967  0.46988  Biso   1.000  Zn
  Zn10     1.0000 0.50765  0.34967  0.64862  Biso   1.000  Zn
  Zn11     1.0000 0.50765  0.52840  0.46988  Biso   1.000  Zn
  Zn12     1.0000 0.50765  0.34967  0.46988  Biso   1.000  Zn
  Zn13     1.0000 0.09046  0.93903  0.88709  Biso   1.000  Zn
  Zn14     1.0000 0.91831  0.93903  0.05924  Biso   1.000  Zn
  Zn15     1.0000 0.09046  0.93903  0.05924  Biso   1.000  Zn
  Zn16     1.0000 0.09046  0.76688  0.05924  Biso   1.000  Zn
  H25      1.0000 0.94718  0.10233  0.70376  Biso   1.000  H
  H26      1.0000 0.73498  0.10233  0.91596  Biso   1.000  H
  H27      1.0000 0.25376  0.79575  0.22254  Biso   1.000  H
  H28      1.0000 0.25376  0.58355  0.22254  Biso   1.000  H
  H29      1.0000 0.25376  0.58355  0.91596  Biso   1.000  H
  H30      1.0000 0.25376  0.79575  0.70376  Biso   1.000  H
  H31      1.0000 0.94718  0.10233  0.22254  Biso   1.000  H
  H32      1.0000 0.73498  0.10233  0.22254  Biso   1.000  H
  H33      1.0000 0.73498  0.79575  0.22254  Biso   1.000  H
  H34      1.0000 0.94718  0.58355  0.22254  Biso   1.000  H
  H35      1.0000 0.25376  0.10233  0.91596  Biso   1.000  H
  H36      1.0000 0.25376  0.10233  0.70376  Biso   1.000  H
  C49      1.0000 0.83721  0.16919  0.68002  Biso   1.000  C
  C50      1.0000 0.88529  0.11892  0.73247  Biso   1.000  C
  C51      1.0000 0.71124  0.16919  0.80599  Biso   1.000  C
  C52      1.0000 0.76369  0.11892  0.85407  Biso   1.000  C
  C53      1.0000 0.32062  0.68577  0.28940  Biso   1.000  C
  C54      1.0000 0.27035  0.73386  0.23913  Biso   1.000  C
  C55      1.0000 0.32062  0.55981  0.28940  Biso   1.000  C
  C56      1.0000 0.27035  0.61226  0.23913  Biso   1.000  C
  C57      1.0000 0.32062  0.55981  0.80599  Biso   1.000  C
  C58      1.0000 0.27035  0.61226  0.85407  Biso   1.000  C
  C59      1.0000 0.32062  0.68577  0.68002  Biso   1.000  C
  C60      1.0000 0.27035  0.73386  0.73247  Biso   1.000  C
  C61      1.0000 0.83721  0.16919  0.28940  Biso   1.000  C
  C62      1.0000 0.88529  0.11892  0.23913  Biso   1.000  C
  C63      1.0000 0.71124  0.16919  0.28940  Biso   1.000  C
  C64      1.0000 0.76369  0.11892  0.23913  Biso   1.000  C
  C65      1.0000 0.71124  0.68577  0.28940  Biso   1.000  C
  C66      1.0000 0.76369  0.73386  0.23913  Biso   1.000  C
  C67      1.0000 0.83721  0.55981  0.28940  Biso   1.000  C
  C68      1.0000 0.88529  0.61226  0.23913  Biso   1.000  C
  C69      1.0000 0.32062  0.16919  0.80599  Biso   1.000  C
  C70      1.0000 0.27035  0.11892  0.85407  Biso   1.000  C
  C71      1.0000 0.32062  0.16919  0.68002  Biso   1.000  C
  C72      1.0000 0.27035  0.11892  0.73247  Biso   1.000  C
  C73      1.0000 0.68630  0.25711  0.65508  Biso   1.000  C
  C74      1.0000 0.74988  0.19353  0.71866  Biso   1.000  C
  C75      1.0000 0.90675  0.03666  0.87553  Biso   1.000  C
  C76      1.0000 0.85658  0.08683  0.82536  Biso   1.000  C
  C77      1.0000 0.40854  0.53487  0.37732  Biso   1.000  C
  C78      1.0000 0.34496  0.59845  0.31374  Biso   1.000  C
  C79      1.0000 0.18810  0.75532  0.15687  Biso   1.000  C
  C80      1.0000 0.23827  0.70515  0.20704  Biso   1.000  C
  C81      1.0000 0.40854  0.53487  0.65508  Biso   1.000  C
  C82      1.0000 0.34496  0.59845  0.71866  Biso   1.000  C
  C83      1.0000 0.18810  0.75532  0.87553  Biso   1.000  C
  C84      1.0000 0.23827  0.70515  0.82536  Biso   1.000  C
  C85      1.0000 0.68630  0.25711  0.37732  Biso   1.000  C
  C86      1.0000 0.74988  0.19353  0.31374  Biso   1.000  C
  C87      1.0000 0.90675  0.03666  0.15687  Biso   1.000  C
  C88      1.0000 0.85658  0.08683  0.20704  Biso   1.000  C
  C89      1.0000 0.68630  0.53487  0.37732  Biso   1.000  C
  C90      1.0000 0.74988  0.59845  0.31374  Biso   1.000  C
  C91      1.0000 0.90675  0.75532  0.15687  Biso   1.000  C
  C92      1.0000 0.85658  0.70515  0.20704  Biso   1.000  C
  C93      1.0000 0.40854  0.25711  0.65508  Biso   1.000  C
  C94      1.0000 0.34496  0.19353  0.71866  Biso   1.000  C
  C95      1.0000 0.18810  0.03666  0.87553  Biso   1.000  C
  C96      1.0000 0.23827  0.08683  0.82536  Biso   1.000  C
  O27      1.0000 0.04742  0.89599  0.01620  Biso   1.000  O
  O28      1.0000 0.55725  0.39271  0.51293  Biso   1.000  O
  O29      1.0000 0.72485  0.27896  0.57282  Biso   1.000  O
  O30      1.0000 0.99149  0.01192  0.84026  Biso   1.000  O
  O31      1.0000 0.60405  0.27896  0.69363  Biso   1.000  O
  O32      1.0000 0.87148  0.01192  0.96027  Biso   1.000  O
  O33      1.0000 0.43040  0.57342  0.39918  Biso   1.000  O
  O34      1.0000 0.16336  0.84006  0.13214  Biso   1.000  O
  O35      1.0000 0.43040  0.45261  0.39918  Biso   1.000  O
  O36      1.0000 0.16336  0.72005  0.13214  Biso   1.000  O
  O37      1.0000 0.43040  0.45261  0.69363  Biso   1.000  O
  O38      1.0000 0.16336  0.72005  0.96027  Biso   1.000  O
  O39      1.0000 0.43040  0.57342  0.57282  Biso   1.000  O
  O40      1.0000 0.16336  0.84006  0.84026  Biso   1.000  O
  O41      1.0000 0.72485  0.27896  0.39918  Biso   1.000  O
  O42      1.0000 0.99149  0.01192  0.13214  Biso   1.000  O
  O43      1.0000 0.60405  0.27896  0.39918  Biso   1.000  O
  O44      1.0000 0.87148  0.01192  0.13214  Biso   1.000  O
  O45      1.0000 0.60405  0.57342  0.39918  Biso   1.000  O
  O46      1.0000 0.87148  0.84006  0.13214  Biso   1.000  O
  O47      1.0000 0.72485  0.45261  0.39918  Biso   1.000  O
  O48      1.0000 0.99149  0.72005  0.13214  Biso   1.000  O
  O49      1.0000 0.43040  0.27896  0.69363  Biso   1.000  O
  O50      1.0000 0.16336  0.01192  0.96027  Biso   1.000  O
  O51      1.0000 0.43040  0.27896  0.57282  Biso   1.000  O
