data_image0
_cell_length_a       18.2888
_cell_length_b       18.2888
_cell_length_c       18.2888
_cell_angle_alpha    60
_cell_angle_beta     60
_cell_angle_gamma    60

_symmetry_space_group_name_H-M    "P 1"
_symmetry_int_tables_number       1

loop_
  _symmetry_equiv_pos_as_xyz
  'x, y, z'

loop_
  _atom_site_label
  _atom_site_occupancy
  _atom_site_fract_x
  _atom_site_fract_y
  _atom_site_fract_z
  _atom_site_thermal_displace_type
  _atom_site_B_iso_or_equiv
  _atom_site_type_symbol
  C1       1.0000 0.29344  0.29345  0.11966  Biso   1.000  C
  C2       1.0000 0.29344  0.29345  0.29345  Biso   1.000  C
  C3       1.0000 0.11965  0.29345  0.29345  Biso   1.000  C
  C4       1.0000 0.29344  0.11966  0.29345  Biso   1.000  C
  C5       1.0000 0.70655  0.70656  0.88034  Biso   1.000  C
  C6       1.0000 0.70656  0.70655  0.70655  Biso   1.000  C
  C7       1.0000 0.70655  0.88034  0.70656  Biso   1.000  C
  C8       1.0000 0.88035  0.70655  0.70655  Biso   1.000  C
  C9       1.0000 0.45490  0.45490  0.93490  Biso   1.000  C
  C10      1.0000 0.45490  0.45490  0.15530  Biso   1.000  C
  C11      1.0000 0.93490  0.15530  0.45490  Biso   1.000  C
  C12      1.0000 0.15530  0.93490  0.45490  Biso   1.000  C
  C13      1.0000 0.45490  0.93490  0.15530  Biso   1.000  C
  C14      1.0000 0.45490  0.15530  0.93490  Biso   1.000  C
  C15      1.0000 0.93490  0.45490  0.45490  Biso   1.000  C
  C16      1.0000 0.15530  0.45490  0.45490  Biso   1.000  C
  C17      1.0000 0.45490  0.15530  0.45490  Biso   1.000  C
  C18      1.0000 0.45490  0.93490  0.45490  Biso   1.000  C
  C19      1.0000 0.93490  0.45490  0.15530  Biso   1.000  C
  C20      1.0000 0.15530  0.45490  0.93490  Biso   1.000  C
  C21      1.0000 0.54510  0.54510  0.06510  Biso   1.000  C
  C22      1.0000 0.54510  0.54510  0.84470  Biso   1.000  C
  C23      1.0000 0.84470  0.06510  0.54510  Biso   1.000  C
  C24      1.0000 0.06510  0.84470  0.54510  Biso   1.000  C
  C25      1.0000 0.06510  0.54510  0.84470  Biso   1.000  C
  C26      1.0000 0.84470  0.54510  0.06510  Biso   1.000  C
  C27      1.0000 0.54510  0.06510  0.54510  Biso   1.000  C
  C28      1.0000 0.54510  0.84470  0.54510  Biso   1.000  C
  C29      1.0000 0.84470  0.54510  0.54510  Biso   1.000  C
  C30      1.0000 0.06510  0.54510  0.54510  Biso   1.000  C
  C31      1.0000 0.54510  0.06510  0.84470  Biso   1.000  C
  C32      1.0000 0.54510  0.84470  0.06510  Biso   1.000  C
  C33      1.0000 0.47314  0.47314  0.96174  Biso   1.000  C
  C34      1.0000 0.47314  0.47314  0.09198  Biso   1.000  C
  C35      1.0000 0.96174  0.09198  0.47314  Biso   1.000  C
  C36      1.0000 0.09198  0.96174  0.47314  Biso   1.000  C
  C37      1.0000 0.47314  0.96174  0.09198  Biso   1.000  C
  C38      1.0000 0.47314  0.09198  0.96174  Biso   1.000  C
  C39      1.0000 0.96174  0.47314  0.47314  Biso   1.000  C
  C40      1.0000 0.09198  0.47314  0.47314  Biso   1.000  C
  C41      1.0000 0.47314  0.09198  0.47314  Biso   1.000  C
  C42      1.0000 0.47314  0.96174  0.47314  Biso   1.000  C
  C43      1.0000 0.96174  0.47314  0.09198  Biso   1.000  C
  C44      1.0000 0.09198  0.47314  0.96174  Biso   1.000  C
  C45      1.0000 0.52686  0.52686  0.03826  Biso   1.000  C
  C46      1.0000 0.52686  0.52686  0.90802  Biso   1.000  C
  C47      1.0000 0.90802  0.03826  0.52686  Biso   1.000  C
  C48      1.0000 0.03826  0.90802  0.52686  Biso   1.000  C
  C49      1.0000 0.03826  0.52686  0.90802  Biso   1.000  C
  C50      1.0000 0.90802  0.52686  0.03826  Biso   1.000  C
  C51      1.0000 0.52686  0.03826  0.52686  Biso   1.000  C
  C52      1.0000 0.52686  0.90802  0.52686  Biso   1.000  C
  C53      1.0000 0.90802  0.52686  0.52686  Biso   1.000  C
  C54      1.0000 0.03826  0.52686  0.52686  Biso   1.000  C
  C55      1.0000 0.52686  0.03826  0.90802  Biso   1.000  C
  C56      1.0000 0.52686  0.90802  0.03826  Biso   1.000  C
  C57      1.0000 0.38849  0.38849  0.11151  Biso   1.000  C
  C58      1.0000 0.44624  0.44624  0.05376  Biso   1.000  C
  C59      1.0000 0.11151  0.11151  0.38849  Biso   1.000  C
  C60      1.0000 0.05376  0.05376  0.44624  Biso   1.000  C
  C61      1.0000 0.38849  0.11151  0.11151  Biso   1.000  C
  C62      1.0000 0.44624  0.05376  0.05376  Biso   1.000  C
  C63      1.0000 0.11151  0.38849  0.38849  Biso   1.000  C
  C64      1.0000 0.05376  0.44624  0.44624  Biso   1.000  C
  C65      1.0000 0.38849  0.11151  0.38849  Biso   1.000  C
  C66      1.0000 0.44624  0.05376  0.44624  Biso   1.000  C
  C67      1.0000 0.11151  0.38849  0.11151  Biso   1.000  C
  C68      1.0000 0.05376  0.44624  0.05376  Biso   1.000  C
  C69      1.0000 0.61151  0.61151  0.88849  Biso   1.000  C
  C70      1.0000 0.55376  0.55376  0.94624  Biso   1.000  C
  C71      1.0000 0.88849  0.88849  0.61151  Biso   1.000  C
  C72      1.0000 0.94624  0.94624  0.55376  Biso   1.000  C
  C73      1.0000 0.88849  0.61151  0.88849  Biso   1.000  C
  C74      1.0000 0.94624  0.55376  0.94624  Biso   1.000  C
  C75      1.0000 0.61151  0.88849  0.61151  Biso   1.000  C
  C76      1.0000 0.55376  0.94624  0.55376  Biso   1.000  C
  C77      1.0000 0.88849  0.61151  0.61151  Biso   1.000  C
  C78      1.0000 0.94624  0.55376  0.55376  Biso   1.000  C
  C79      1.0000 0.61151  0.88849  0.88849  Biso   1.000  C
  C80      1.0000 0.55376  0.94624  0.94624  Biso   1.000  C
  C81      1.0000 0.25000  0.25000  0.25000  Biso   1.000  C
  C82      1.0000 0.75000  0.75000  0.75000  Biso   1.000  C
  C83      1.0000 0.36620  0.36620  0.07286  Biso   1.000  C
  C84      1.0000 0.36620  0.36620  0.19474  Biso   1.000  C
  C85      1.0000 0.07286  0.19474  0.36620  Biso   1.000  C
  C86      1.0000 0.19474  0.07286  0.36620  Biso   1.000  C
  C87      1.0000 0.36620  0.07286  0.19474  Biso   1.000  C
  C88      1.0000 0.36620  0.19474  0.07286  Biso   1.000  C
  C89      1.0000 0.07286  0.36620  0.36620  Biso   1.000  C
  C90      1.0000 0.19474  0.36620  0.36620  Biso   1.000  C
  C91      1.0000 0.36620  0.19474  0.36620  Biso   1.000  C
  C92      1.0000 0.36620  0.07286  0.36620  Biso   1.000  C
  C93      1.0000 0.07286  0.36620  0.19474  Biso   1.000  C
  C94      1.0000 0.19474  0.36620  0.07286  Biso   1.000  C
  C95      1.0000 0.63380  0.63380  0.92714  Biso   1.000  C
  C96      1.0000 0.63380  0.63380  0.80526  Biso   1.000  C
  C97      1.0000 0.80526  0.92714  0.63380  Biso   1.000  C
  C98      1.0000 0.92714  0.80526  0.63380  Biso   1.000  C
  C99      1.0000 0.92714  0.63380  0.80526  Biso   1.000  C
  C100     1.0000 0.80526  0.63380  0.92714  Biso   1.000  C
  C101     1.0000 0.63380  0.92714  0.63380  Biso   1.000  C
  C102     1.0000 0.63380  0.80526  0.63380  Biso   1.000  C
  C103     1.0000 0.80526  0.63380  0.63380  Biso   1.000  C
  C104     1.0000 0.92714  0.63380  0.63380  Biso   1.000  C
  C105     1.0000 0.63380  0.92714  0.80526  Biso   1.000  C
  C106     1.0000 0.63380  0.80526  0.92714  Biso   1.000  C
  O1       1.0000 0.00000  0.00000  0.00000  Biso   1.000  O
  O2       1.0000 0.57108  0.41855  0.59181  Biso   1.000  O
  O3       1.0000 0.57108  0.59196  0.59181  Biso   1.000  O
  O4       1.0000 0.00000  0.17340  0.00000  Biso   1.000  O
  O5       1.0000 0.99996  0.99992  0.17360  Biso   1.000  O
  O6       1.0000 0.17317  0.00018  0.99987  Biso   1.000  O
  O7       1.0000 0.57112  0.59203  0.41821  Biso   1.000  O
  O8       1.0000 0.39790  0.59178  0.59194  Biso   1.000  O
  O9       1.0000 0.82550  0.84351  0.36674  Biso   1.000  O
  O10      1.0000 0.82455  0.84505  0.13619  Biso   1.000  O
  O11      1.0000 0.82167  0.13624  0.84589  Biso   1.000  O
  O12      1.0000 0.74558  0.45430  0.22508  Biso   1.000  O
  O13      1.0000 0.74653  0.22435  0.45562  Biso   1.000  O
  O14      1.0000 0.74941  0.22236  0.74592  Biso   1.000  O
  O15      1.0000 0.74558  0.74845  0.22508  Biso   1.000  O
  O16      1.0000 0.74652  0.74691  0.45562  Biso   1.000  O
  O17      1.0000 0.74941  0.45571  0.74592  Biso   1.000  O
  O18      1.0000 0.82550  0.13766  0.36674  Biso   1.000  O
  O19      1.0000 0.82455  0.36760  0.13619  Biso   1.000  O
  O20      1.0000 0.82167  0.36960  0.84589  Biso   1.000  O
  O21      1.0000 0.91291  0.91195  0.17806  Biso   1.000  O
  O22      1.0000 0.84898  0.84752  0.23725  Biso   1.000  O
  O23      1.0000 0.80986  0.82213  0.34041  Biso   1.000  O
  O24      1.0000 0.80991  0.82357  0.19934  Biso   1.000  O
  O25      1.0000 0.17409  0.91256  0.91270  Biso   1.000  O
  O26      1.0000 0.80830  0.19929  0.82223  Biso   1.000  O
  O27      1.0000 0.65816  0.42148  0.41375  Biso   1.000  O
  O28      1.0000 0.72210  0.35230  0.35456  Biso   1.000  O
  O29      1.0000 0.76122  0.39095  0.25141  Biso   1.000  O
  O30      1.0000 0.76117  0.25138  0.39247  Biso   1.000  O
  O31      1.0000 0.39699  0.41791  0.67911  Biso   1.000  O
  O32      1.0000 0.76277  0.24839  0.76958  Biso   1.000  O
  O33      1.0000 0.65816  0.68000  0.41375  Biso   1.000  O
  O34      1.0000 0.72210  0.74444  0.35456  Biso   1.000  O
  O35      1.0000 0.76122  0.76982  0.25141  Biso   1.000  O
  O36      1.0000 0.76117  0.76839  0.39247  Biso   1.000  O
  O37      1.0000 0.39699  0.67939  0.67911  Biso   1.000  O
  O38      1.0000 0.76277  0.39266  0.76958  Biso   1.000  O
  O39      1.0000 0.91291  0.17047  0.17806  Biso   1.000  O
  O40      1.0000 0.84898  0.23965  0.23725  Biso   1.000  O
  O41      1.0000 0.80986  0.20100  0.34041  Biso   1.000  O
  O42      1.0000 0.80991  0.34058  0.19934  Biso   1.000  O
  O43      1.0000 0.17409  0.17405  0.91270  Biso   1.000  O
  O44      1.0000 0.80830  0.34357  0.82223  Biso   1.000  O
  O45      1.0000 0.17212  0.91166  0.17796  Biso   1.000  O
  O46      1.0000 0.90953  0.17514  0.91359  Biso   1.000  O
  O47      1.0000 0.84876  0.23987  0.84490  Biso   1.000  O
  O48      1.0000 0.39895  0.68030  0.41385  Biso   1.000  O
  O49      1.0000 0.66154  0.41682  0.67822  Biso   1.000  O
  O50      1.0000 0.72232  0.35209  0.74691  Biso   1.000  O
  O51      1.0000 0.93033  0.92818  0.22181  Biso   1.000  O
  O52      1.0000 0.92835  0.92740  0.09551  Biso   1.000  O
  O53      1.0000 0.22318  0.92800  0.92893  Biso   1.000  O
  O54      1.0000 0.09323  0.92780  0.92883  Biso   1.000  O
  O55      1.0000 0.92913  0.09378  0.92725  Biso   1.000  O
  O56      1.0000 0.64074  0.49888  0.37000  Biso   1.000  O
  O57      1.0000 0.64273  0.36981  0.49630  Biso   1.000  O
  O58      1.0000 0.34790  0.49867  0.66288  Biso   1.000  O
  O59      1.0000 0.47785  0.36842  0.66298  Biso   1.000  O
  O60      1.0000 0.64195  0.36872  0.66456  Biso   1.000  O
  O61      1.0000 0.64074  0.66377  0.37000  Biso   1.000  O
  O62      1.0000 0.64273  0.66456  0.49630  Biso   1.000  O
  O63      1.0000 0.34790  0.66395  0.66288  Biso   1.000  O
  O64      1.0000 0.47785  0.66415  0.66298  Biso   1.000  O
  O65      1.0000 0.64195  0.49817  0.66456  Biso   1.000  O
  O66      1.0000 0.93034  0.09307  0.22181  Biso   1.000  O
  O67      1.0000 0.92835  0.22214  0.09551  Biso   1.000  O
  O68      1.0000 0.22318  0.09329  0.92893  Biso   1.000  O
  O69      1.0000 0.09323  0.22353  0.92883  Biso   1.000  O
  O70      1.0000 0.92913  0.22324  0.92725  Biso   1.000  O
  O71      1.0000 0.04187  0.04468  0.04216  Biso   1.000  O
  O72      1.0000 0.09354  0.92828  0.22330  Biso   1.000  O
  O73      1.0000 0.22289  0.92839  0.09373  Biso   1.000  O
  O74      1.0000 0.52921  0.54727  0.54965  Biso   1.000  O
  O75      1.0000 0.47754  0.66367  0.36852  Biso   1.000  O
