data_image0
_cell_length_a       18.2704
_cell_length_b       18.2704
_cell_length_c       18.2704
_cell_angle_alpha    60
_cell_angle_beta     60
_cell_angle_gamma    60

_symmetry_space_group_name_H-M    "P 1"
_symmetry_int_tables_number       1

loop_
  _symmetry_equiv_pos_as_xyz
  'x, y, z'

loop_
  _atom_site_label
  _atom_site_occupancy
  _atom_site_fract_x
  _atom_site_fract_y
  _atom_site_fract_z
  _atom_site_thermal_displace_type
  _atom_site_B_iso_or_equiv
  _atom_site_type_symbol
  C1       1.0000 0.29350  0.29349  0.11952  Biso   1.000  C
  C2       1.0000 0.29350  0.29349  0.29349  Biso   1.000  C
  C3       1.0000 0.11953  0.29349  0.29349  Biso   1.000  C
  C4       1.0000 0.29350  0.11952  0.29349  Biso   1.000  C
  C5       1.0000 0.70650  0.70651  0.88048  Biso   1.000  C
  C6       1.0000 0.70650  0.70651  0.70651  Biso   1.000  C
  C7       1.0000 0.70650  0.88048  0.70651  Biso   1.000  C
  C8       1.0000 0.88047  0.70651  0.70651  Biso   1.000  C
  C9       1.0000 0.45540  0.45540  0.93560  Biso   1.000  C
  C10      1.0000 0.45540  0.45540  0.15360  Biso   1.000  C
  C11      1.0000 0.93560  0.15360  0.45540  Biso   1.000  C
  C12      1.0000 0.15360  0.93560  0.45540  Biso   1.000  C
  C13      1.0000 0.45540  0.93560  0.15360  Biso   1.000  C
  C14      1.0000 0.45540  0.15360  0.93560  Biso   1.000  C
  C15      1.0000 0.93560  0.45540  0.45540  Biso   1.000  C
  C16      1.0000 0.15360  0.45540  0.45540  Biso   1.000  C
  C17      1.0000 0.45540  0.15360  0.45540  Biso   1.000  C
  C18      1.0000 0.45540  0.93560  0.45540  Biso   1.000  C
  C19      1.0000 0.93560  0.45540  0.15360  Biso   1.000  C
  C20      1.0000 0.15360  0.45540  0.93560  Biso   1.000  C
  C21      1.0000 0.54460  0.54460  0.06440  Biso   1.000  C
  C22      1.0000 0.54460  0.54460  0.84640  Biso   1.000  C
  C23      1.0000 0.84640  0.06440  0.54460  Biso   1.000  C
  C24      1.0000 0.06440  0.84640  0.54460  Biso   1.000  C
  C25      1.0000 0.06440  0.54460  0.84640  Biso   1.000  C
  C26      1.0000 0.84640  0.54460  0.06440  Biso   1.000  C
  C27      1.0000 0.54460  0.06440  0.54460  Biso   1.000  C
  C28      1.0000 0.54460  0.84640  0.54460  Biso   1.000  C
  C29      1.0000 0.84640  0.54460  0.54460  Biso   1.000  C
  C30      1.0000 0.06440  0.54460  0.54460  Biso   1.000  C
  C31      1.0000 0.54460  0.06440  0.84640  Biso   1.000  C
  C32      1.0000 0.54460  0.84640  0.06440  Biso   1.000  C
  C33      1.0000 0.47338  0.47338  0.96238  Biso   1.000  C
  C34      1.0000 0.47338  0.47338  0.09086  Biso   1.000  C
  C35      1.0000 0.96238  0.09086  0.47338  Biso   1.000  C
  C36      1.0000 0.09086  0.96238  0.47338  Biso   1.000  C
  C37      1.0000 0.47338  0.96238  0.09086  Biso   1.000  C
  C38      1.0000 0.47338  0.09086  0.96238  Biso   1.000  C
  C39      1.0000 0.96238  0.47338  0.47338  Biso   1.000  C
  C40      1.0000 0.09086  0.47338  0.47338  Biso   1.000  C
  C41      1.0000 0.47338  0.09086  0.47338  Biso   1.000  C
  C42      1.0000 0.47338  0.96238  0.47338  Biso   1.000  C
  C43      1.0000 0.96238  0.47338  0.09086  Biso   1.000  C
  C44      1.0000 0.09086  0.47338  0.96238  Biso   1.000  C
  C45      1.0000 0.52662  0.52662  0.03762  Biso   1.000  C
  C46      1.0000 0.52662  0.52662  0.90914  Biso   1.000  C
  C47      1.0000 0.90914  0.03762  0.52662  Biso   1.000  C
  C48      1.0000 0.03762  0.90914  0.52662  Biso   1.000  C
  C49      1.0000 0.03762  0.52662  0.90914  Biso   1.000  C
  C50      1.0000 0.90914  0.52662  0.03762  Biso   1.000  C
  C51      1.0000 0.52662  0.03762  0.52662  Biso   1.000  C
  C52      1.0000 0.52662  0.90914  0.52662  Biso   1.000  C
  C53      1.0000 0.90914  0.52662  0.52662  Biso   1.000  C
  C54      1.0000 0.03762  0.52662  0.52662  Biso   1.000  C
  C55      1.0000 0.52662  0.03762  0.90914  Biso   1.000  C
  C56      1.0000 0.52662  0.90914  0.03762  Biso   1.000  C
  C57      1.0000 0.38861  0.38861  0.11139  Biso   1.000  C
  C58      1.0000 0.44619  0.44619  0.05381  Biso   1.000  C
  C59      1.0000 0.11139  0.11139  0.38861  Biso   1.000  C
  C60      1.0000 0.05381  0.05381  0.44619  Biso   1.000  C
  C61      1.0000 0.38861  0.11139  0.11139  Biso   1.000  C
  C62      1.0000 0.44619  0.05381  0.05381  Biso   1.000  C
  C63      1.0000 0.11139  0.38861  0.38861  Biso   1.000  C
  C64      1.0000 0.05381  0.44619  0.44619  Biso   1.000  C
  C65      1.0000 0.38861  0.11139  0.38861  Biso   1.000  C
  C66      1.0000 0.44619  0.05381  0.44619  Biso   1.000  C
  C67      1.0000 0.11139  0.38861  0.11139  Biso   1.000  C
  C68      1.0000 0.05381  0.44619  0.05381  Biso   1.000  C
  C69      1.0000 0.61139  0.61139  0.88861  Biso   1.000  C
  C70      1.0000 0.55381  0.55381  0.94619  Biso   1.000  C
  C71      1.0000 0.88861  0.88861  0.61139  Biso   1.000  C
  C72      1.0000 0.94619  0.94619  0.55381  Biso   1.000  C
  C73      1.0000 0.88861  0.61139  0.88861  Biso   1.000  C
  C74      1.0000 0.94619  0.55381  0.94619  Biso   1.000  C
  C75      1.0000 0.61139  0.88861  0.61139  Biso   1.000  C
  C76      1.0000 0.55381  0.94619  0.55381  Biso   1.000  C
  C77      1.0000 0.88861  0.61139  0.61139  Biso   1.000  C
  C78      1.0000 0.94619  0.55381  0.55381  Biso   1.000  C
  C79      1.0000 0.61139  0.88861  0.88861  Biso   1.000  C
  C80      1.0000 0.55381  0.94619  0.94619  Biso   1.000  C
  C81      1.0000 0.25000  0.25000  0.25000  Biso   1.000  C
  C82      1.0000 0.75000  0.75000  0.75000  Biso   1.000  C
  C83      1.0000 0.36607  0.36607  0.07299  Biso   1.000  C
  C84      1.0000 0.36607  0.36607  0.19487  Biso   1.000  C
  C85      1.0000 0.07299  0.19487  0.36607  Biso   1.000  C
  C86      1.0000 0.19487  0.07299  0.36607  Biso   1.000  C
  C87      1.0000 0.36607  0.07299  0.19487  Biso   1.000  C
  C88      1.0000 0.36607  0.19487  0.07299  Biso   1.000  C
  C89      1.0000 0.07299  0.36607  0.36607  Biso   1.000  C
  C90      1.0000 0.19487  0.36607  0.36607  Biso   1.000  C
  C91      1.0000 0.36607  0.19487  0.36607  Biso   1.000  C
  C92      1.0000 0.36607  0.07299  0.36607  Biso   1.000  C
  C93      1.0000 0.07299  0.36607  0.19487  Biso   1.000  C
  C94      1.0000 0.19487  0.36607  0.07299  Biso   1.000  C
  C95      1.0000 0.63393  0.63393  0.92701  Biso   1.000  C
  C96      1.0000 0.63393  0.63393  0.80513  Biso   1.000  C
  C97      1.0000 0.80513  0.92701  0.63393  Biso   1.000  C
  C98      1.0000 0.92701  0.80513  0.63393  Biso   1.000  C
  C99      1.0000 0.92701  0.63393  0.80513  Biso   1.000  C
  C100     1.0000 0.80513  0.63393  0.92701  Biso   1.000  C
  C101     1.0000 0.63393  0.92701  0.63393  Biso   1.000  C
  C102     1.0000 0.63393  0.80513  0.63393  Biso   1.000  C
  C103     1.0000 0.80513  0.63393  0.63393  Biso   1.000  C
  C104     1.0000 0.92701  0.63393  0.63393  Biso   1.000  C
  C105     1.0000 0.63393  0.92701  0.80513  Biso   1.000  C
  C106     1.0000 0.63393  0.80513  0.92701  Biso   1.000  C
  O1       1.0000 0.16420  0.00000  0.00000  Biso   1.000  O
  O2       1.0000 0.57697  0.58710  0.41304  Biso   1.000  O
  O3       1.0000 0.57697  0.41239  0.41304  Biso   1.000  O
  O4       1.0000 0.16420  0.82530  0.00000  Biso   1.000  O
  O5       1.0000 0.16374  0.00034  0.82508  Biso   1.000  O
  O6       1.0000 0.98910  0.00015  0.00010  Biso   1.000  O
  O7       1.0000 0.57743  0.41206  0.58796  Biso   1.000  O
  O8       1.0000 0.75207  0.41224  0.41294  Biso   1.000  O
  O9       1.0000 0.32814  0.64485  0.85658  Biso   1.000  O
  O10      1.0000 0.32082  0.86045  0.64508  Biso   1.000  O
  O11      1.0000 0.02457  0.64593  0.15999  Biso   1.000  O
  O12      1.0000 0.80627  0.85792  0.16229  Biso   1.000  O
  O13      1.0000 0.32895  0.85992  0.15749  Biso   1.000  O
  O14      1.0000 0.41303  0.25246  0.55646  Biso   1.000  O
  O15      1.0000 0.42034  0.24925  0.76796  Biso   1.000  O
  O16      1.0000 0.71660  0.25337  0.25305  Biso   1.000  O
  O17      1.0000 0.93490  0.24938  0.25075  Biso   1.000  O
  O18      1.0000 0.41221  0.76926  0.25555  Biso   1.000  O
  O19      1.0000 0.41302  0.76755  0.55646  Biso   1.000  O
  O20      1.0000 0.42035  0.55195  0.76796  Biso   1.000  O
  O21      1.0000 0.71660  0.76646  0.25305  Biso   1.000  O
  O22      1.0000 0.93490  0.55447  0.25075  Biso   1.000  O
  O23      1.0000 0.41221  0.55247  0.25555  Biso   1.000  O
  O24      1.0000 0.32814  0.15994  0.85658  Biso   1.000  O
  O25      1.0000 0.32082  0.16314  0.64508  Biso   1.000  O
  O26      1.0000 0.02456  0.15902  0.15999  Biso   1.000  O
  O27      1.0000 0.80627  0.16302  0.16229  Biso   1.000  O
  O28      1.0000 0.32896  0.64313  0.15749  Biso   1.000  O
  O29      1.0000 0.80716  0.16183  0.85867  Biso   1.000  O
  O30      1.0000 0.02083  0.16294  0.64278  Biso   1.000  O
  O31      1.0000 0.93401  0.25056  0.55436  Biso   1.000  O
  O32      1.0000 0.72034  0.24945  0.77026  Biso   1.000  O
  O33      1.0000 0.25839  0.81678  0.82021  Biso   1.000  O
  O34      1.0000 0.31793  0.75875  0.75907  Biso   1.000  O
  O35      1.0000 0.34592  0.67052  0.79444  Biso   1.000  O
  O36      1.0000 0.34020  0.79841  0.67105  Biso   1.000  O
  O37      1.0000 0.97959  0.81997  0.09705  Biso   1.000  O
  O38      1.0000 0.92555  0.76152  0.15229  Biso   1.000  O
  O39      1.0000 0.96243  0.67210  0.17797  Biso   1.000  O
  O40      1.0000 0.83394  0.79599  0.17977  Biso   1.000  O
  O41      1.0000 0.34484  0.79788  0.17757  Biso   1.000  O
  O42      1.0000 0.48277  0.31829  0.59283  Biso   1.000  O
  O43      1.0000 0.42324  0.25865  0.65397  Biso   1.000  O
  O44      1.0000 0.39525  0.23377  0.61860  Biso   1.000  O
  O45      1.0000 0.40096  0.23257  0.74199  Biso   1.000  O
  O46      1.0000 0.76158  0.31950  0.31599  Biso   1.000  O
  O47      1.0000 0.81562  0.26226  0.26074  Biso   1.000  O
  O48      1.0000 0.77874  0.23539  0.23507  Biso   1.000  O
  O49      1.0000 0.90722  0.23260  0.23327  Biso   1.000  O
  O50      1.0000 0.39633  0.74319  0.23547  Biso   1.000  O
  O51      1.0000 0.48277  0.59561  0.59283  Biso   1.000  O
  O52      1.0000 0.42324  0.65365  0.65397  Biso   1.000  O
  O53      1.0000 0.39525  0.74187  0.61860  Biso   1.000  O
  O54      1.0000 0.40096  0.61398  0.74199  Biso   1.000  O
  O55      1.0000 0.76158  0.59243  0.31599  Biso   1.000  O
  O56      1.0000 0.81562  0.65087  0.26074  Biso   1.000  O
  O57      1.0000 0.77874  0.74029  0.23507  Biso   1.000  O
  O58      1.0000 0.90723  0.61641  0.23327  Biso   1.000  O
  O59      1.0000 0.39633  0.61451  0.23547  Biso   1.000  O
  O60      1.0000 0.25840  0.09410  0.82021  Biso   1.000  O
  O61      1.0000 0.31793  0.15375  0.75907  Biso   1.000  O
  O62      1.0000 0.34592  0.17862  0.79444  Biso   1.000  O
  O63      1.0000 0.34021  0.17983  0.67105  Biso   1.000  O
  O64      1.0000 0.97959  0.09289  0.09705  Biso   1.000  O
  O65      1.0000 0.92555  0.15013  0.15229  Biso   1.000  O
  O66      1.0000 0.96243  0.17700  0.17797  Biso   1.000  O
  O67      1.0000 0.83394  0.17980  0.17977  Biso   1.000  O
  O68      1.0000 0.34484  0.66921  0.17757  Biso   1.000  O
  O69      1.0000 0.98627  0.09490  0.81342  Biso   1.000  O
  O70      1.0000 0.92413  0.15205  0.76127  Biso   1.000  O
  O71      1.0000 0.83433  0.17922  0.79673  Biso   1.000  O
  O72      1.0000 0.95879  0.18043  0.66985  Biso   1.000  O
  O73      1.0000 0.25691  0.82177  0.08906  Biso   1.000  O
  O74      1.0000 0.31685  0.76012  0.15239  Biso   1.000  O
  O75      1.0000 0.75490  0.31749  0.59962  Biso   1.000  O
  O76      1.0000 0.81704  0.26035  0.65177  Biso   1.000  O
  O77      1.0000 0.90684  0.23317  0.61631  Biso   1.000  O
  O78      1.0000 0.78238  0.23197  0.74318  Biso   1.000  O
  O79      1.0000 0.48426  0.59063  0.32398  Biso   1.000  O
  O80      1.0000 0.42432  0.65227  0.26065  Biso   1.000  O
  O81      1.0000 0.23831  0.90210  0.77436  Biso   1.000  O
  O82      1.0000 0.23962  0.77292  0.90433  Biso   1.000  O
  O83      1.0000 0.93973  0.90308  0.07057  Biso   1.000  O
  O84      1.0000 0.06580  0.77591  0.07457  Biso   1.000  O
  O85      1.0000 0.23783  0.90408  0.07177  Biso   1.000  O
  O86      1.0000 0.50285  0.33767  0.63868  Biso   1.000  O
  O87      1.0000 0.50155  0.33977  0.50871  Biso   1.000  O
  O88      1.0000 0.80144  0.33629  0.34247  Biso   1.000  O
  O89      1.0000 0.67536  0.33918  0.33847  Biso   1.000  O
  O90      1.0000 0.50334  0.63658  0.34127  Biso   1.000  O
  O91      1.0000 0.50286  0.51029  0.63868  Biso   1.000  O
  O92      1.0000 0.50155  0.63947  0.50871  Biso   1.000  O
  O93      1.0000 0.80144  0.50931  0.34247  Biso   1.000  O
  O94      1.0000 0.67537  0.63648  0.33847  Biso   1.000  O
  O95      1.0000 0.50334  0.50831  0.34127  Biso   1.000  O
  O96      1.0000 0.23831  0.07473  0.77436  Biso   1.000  O
  O97      1.0000 0.23962  0.07262  0.90433  Biso   1.000  O
  O98      1.0000 0.93973  0.07611  0.07057  Biso   1.000  O
  O99      1.0000 0.06580  0.07321  0.07457  Biso   1.000  O
  O100     1.0000 0.23783  0.77581  0.07177  Biso   1.000  O
  O101     1.0000 0.12104  0.95624  0.95598  Biso   1.000  O
  O102     1.0000 0.06699  0.07373  0.77505  Biso   1.000  O
  O103     1.0000 0.94112  0.07602  0.89634  Biso   1.000  O
  O104     1.0000 0.62013  0.45616  0.45706  Biso   1.000  O
  O105     1.0000 0.67418  0.33867  0.63799  Biso   1.000  O
