data_image0
_cell_length_a       18.255
_cell_length_b       18.255
_cell_length_c       18.255
_cell_angle_alpha    60
_cell_angle_beta     60
_cell_angle_gamma    60

_symmetry_space_group_name_H-M    "P 1"
_symmetry_int_tables_number       1

loop_
  _symmetry_equiv_pos_as_xyz
  'x, y, z'

loop_
  _atom_site_label
  _atom_site_occupancy
  _atom_site_fract_x
  _atom_site_fract_y
  _atom_site_fract_z
  _atom_site_thermal_displace_type
  _atom_site_B_iso_or_equiv
  _atom_site_type_symbol
  Zn1      1.0000 0.29354  0.29354  0.11938  Biso   1.000  Zn
  Zn2      1.0000 0.29354  0.29354  0.29354  Biso   1.000  Zn
  Zn3      1.0000 0.11938  0.29354  0.29354  Biso   1.000  Zn
  Zn4      1.0000 0.29354  0.11938  0.29354  Biso   1.000  Zn
  Zn5      1.0000 0.70646  0.70646  0.88062  Biso   1.000  Zn
  Zn6      1.0000 0.70646  0.70646  0.70646  Biso   1.000  Zn
  Zn7      1.0000 0.70646  0.88062  0.70646  Biso   1.000  Zn
  Zn8      1.0000 0.88062  0.70646  0.70646  Biso   1.000  Zn
  H1       1.0000 0.45570  0.45570  0.93630  Biso   1.000  H
  H2       1.0000 0.45570  0.45570  0.15230  Biso   1.000  H
  H3       1.0000 0.93630  0.15230  0.45570  Biso   1.000  H
  H4       1.0000 0.15230  0.93630  0.45570  Biso   1.000  H
  H5       1.0000 0.45570  0.93630  0.15230  Biso   1.000  H
  H6       1.0000 0.45570  0.15230  0.93630  Biso   1.000  H
  H7       1.0000 0.93630  0.45570  0.45570  Biso   1.000  H
  H8       1.0000 0.15230  0.45570  0.45570  Biso   1.000  H
  H9       1.0000 0.45570  0.15230  0.45570  Biso   1.000  H
  H10      1.0000 0.45570  0.93630  0.45570  Biso   1.000  H
  H11      1.0000 0.93630  0.45570  0.15230  Biso   1.000  H
  H12      1.0000 0.15230  0.45570  0.93630  Biso   1.000  H
  H13      1.0000 0.54430  0.54430  0.06370  Biso   1.000  H
  H14      1.0000 0.54430  0.54430  0.84770  Biso   1.000  H
  H15      1.0000 0.84770  0.06370  0.54430  Biso   1.000  H
  H16      1.0000 0.06370  0.84770  0.54430  Biso   1.000  H
  H17      1.0000 0.06370  0.54430  0.84770  Biso   1.000  H
  H18      1.0000 0.84770  0.54430  0.06370  Biso   1.000  H
  H19      1.0000 0.54430  0.06370  0.54430  Biso   1.000  H
  H20      1.0000 0.54430  0.84770  0.54430  Biso   1.000  H
  H21      1.0000 0.84770  0.54430  0.54430  Biso   1.000  H
  H22      1.0000 0.06370  0.54430  0.54430  Biso   1.000  H
  H23      1.0000 0.54430  0.06370  0.84770  Biso   1.000  H
  H24      1.0000 0.54430  0.84770  0.06370  Biso   1.000  H
  C1       1.0000 0.47332  0.47332  0.96310  Biso   1.000  C
  C2       1.0000 0.47332  0.47332  0.09026  Biso   1.000  C
  C3       1.0000 0.96310  0.09026  0.47332  Biso   1.000  C
  C4       1.0000 0.09026  0.96310  0.47332  Biso   1.000  C
  C5       1.0000 0.47332  0.96310  0.09026  Biso   1.000  C
  C6       1.0000 0.47332  0.09026  0.96310  Biso   1.000  C
  C7       1.0000 0.96310  0.47332  0.47332  Biso   1.000  C
  C8       1.0000 0.09026  0.47332  0.47332  Biso   1.000  C
  C9       1.0000 0.47332  0.09026  0.47332  Biso   1.000  C
  C10      1.0000 0.47332  0.96310  0.47332  Biso   1.000  C
  C11      1.0000 0.96310  0.47332  0.09026  Biso   1.000  C
  C12      1.0000 0.09026  0.47332  0.96310  Biso   1.000  C
  C13      1.0000 0.52668  0.52668  0.03690  Biso   1.000  C
  C14      1.0000 0.52668  0.52668  0.90974  Biso   1.000  C
  C15      1.0000 0.90974  0.03690  0.52668  Biso   1.000  C
  C16      1.0000 0.03690  0.90974  0.52668  Biso   1.000  C
  C17      1.0000 0.03690  0.52668  0.90974  Biso   1.000  C
  C18      1.0000 0.90974  0.52668  0.03690  Biso   1.000  C
  C19      1.0000 0.52668  0.03690  0.52668  Biso   1.000  C
  C20      1.0000 0.52668  0.90974  0.52668  Biso   1.000  C
  C21      1.0000 0.90974  0.52668  0.52668  Biso   1.000  C
  C22      1.0000 0.03690  0.52668  0.52668  Biso   1.000  C
  C23      1.0000 0.52668  0.03690  0.90974  Biso   1.000  C
  C24      1.0000 0.52668  0.90974  0.03690  Biso   1.000  C
  C25      1.0000 0.38870  0.38870  0.11130  Biso   1.000  C
  C26      1.0000 0.44580  0.44580  0.05420  Biso   1.000  C
  C27      1.0000 0.11130  0.11130  0.38870  Biso   1.000  C
  C28      1.0000 0.05420  0.05420  0.44580  Biso   1.000  C
  C29      1.0000 0.38870  0.11130  0.11130  Biso   1.000  C
  C30      1.0000 0.44580  0.05420  0.05420  Biso   1.000  C
  C31      1.0000 0.11130  0.38870  0.38870  Biso   1.000  C
  C32      1.0000 0.05420  0.44580  0.44580  Biso   1.000  C
  C33      1.0000 0.38870  0.11130  0.38870  Biso   1.000  C
  C34      1.0000 0.44580  0.05420  0.44580  Biso   1.000  C
  C35      1.0000 0.11130  0.38870  0.11130  Biso   1.000  C
  C36      1.0000 0.05420  0.44580  0.05420  Biso   1.000  C
  C37      1.0000 0.61130  0.61130  0.88870  Biso   1.000  C
  C38      1.0000 0.55420  0.55420  0.94580  Biso   1.000  C
  C39      1.0000 0.88870  0.88870  0.61130  Biso   1.000  C
  C40      1.0000 0.94580  0.94580  0.55420  Biso   1.000  C
  C41      1.0000 0.88870  0.61130  0.88870  Biso   1.000  C
  C42      1.0000 0.94580  0.55420  0.94580  Biso   1.000  C
  C43      1.0000 0.61130  0.88870  0.61130  Biso   1.000  C
  C44      1.0000 0.55420  0.94580  0.55420  Biso   1.000  C
  C45      1.0000 0.88870  0.61130  0.61130  Biso   1.000  C
  C46      1.0000 0.94580  0.55420  0.55420  Biso   1.000  C
  C47      1.0000 0.61130  0.88870  0.88870  Biso   1.000  C
  C48      1.0000 0.55420  0.94580  0.94580  Biso   1.000  C
  O1       1.0000 0.25000  0.25000  0.25000  Biso   1.000  O
  O2       1.0000 0.75000  0.75000  0.75000  Biso   1.000  O
  O3       1.0000 0.36613  0.36613  0.07303  Biso   1.000  O
  O4       1.0000 0.36613  0.36613  0.19471  Biso   1.000  O
  O5       1.0000 0.07303  0.19471  0.36613  Biso   1.000  O
  O6       1.0000 0.19471  0.07303  0.36613  Biso   1.000  O
  O7       1.0000 0.36613  0.07303  0.19471  Biso   1.000  O
  O8       1.0000 0.36613  0.19471  0.07303  Biso   1.000  O
  O9       1.0000 0.07303  0.36613  0.36613  Biso   1.000  O
  O10      1.0000 0.19471  0.36613  0.36613  Biso   1.000  O
  O11      1.0000 0.36613  0.19471  0.36613  Biso   1.000  O
  O12      1.0000 0.36613  0.07303  0.36613  Biso   1.000  O
  O13      1.0000 0.07303  0.36613  0.19471  Biso   1.000  O
  O14      1.0000 0.19471  0.36613  0.07303  Biso   1.000  O
  O15      1.0000 0.63387  0.63387  0.92697  Biso   1.000  O
  O16      1.0000 0.63387  0.63387  0.80529  Biso   1.000  O
  O17      1.0000 0.80529  0.92697  0.63387  Biso   1.000  O
  O18      1.0000 0.92697  0.80529  0.63387  Biso   1.000  O
  O19      1.0000 0.92697  0.63387  0.80529  Biso   1.000  O
  O20      1.0000 0.80529  0.63387  0.92697  Biso   1.000  O
  O21      1.0000 0.63387  0.92697  0.63387  Biso   1.000  O
  O22      1.0000 0.63387  0.80529  0.63387  Biso   1.000  O
  O23      1.0000 0.80529  0.63387  0.63387  Biso   1.000  O
  O24      1.0000 0.92697  0.63387  0.63387  Biso   1.000  O
  O25      1.0000 0.63387  0.92697  0.80529  Biso   1.000  O
  O26      1.0000 0.63387  0.80529  0.92697  Biso   1.000  O
  Zn9      1.0000 0.50316  0.52072  0.33545  Biso   1.000  Zn
  Zn10     1.0000 0.50317  0.52071  0.50960  Biso   1.000  Zn
  Zn11     1.0000 0.32903  0.52072  0.50959  Biso   1.000  Zn
  Zn12     1.0000 0.50317  0.34658  0.50960  Biso   1.000  Zn
  Zn13     1.0000 0.91555  0.93309  0.09610  Biso   1.000  Zn
  Zn14     1.0000 0.91554  0.93309  0.92196  Biso   1.000  Zn
  Zn15     1.0000 0.91555  0.10722  0.92196  Biso   1.000  Zn
  Zn16     1.0000 0.08968  0.93309  0.92195  Biso   1.000  Zn
  H25      1.0000 0.66531  0.68285  0.15178  Biso   1.000  H
  H26      1.0000 0.66531  0.68285  0.36787  Biso   1.000  H
  H27      1.0000 0.14537  0.37899  0.67172  Biso   1.000  H
  H28      1.0000 0.36145  0.16291  0.67172  Biso   1.000  H
  H29      1.0000 0.66531  0.16291  0.36787  Biso   1.000  H
  H30      1.0000 0.66531  0.37899  0.15178  Biso   1.000  H
  H31      1.0000 0.14537  0.68285  0.67172  Biso   1.000  H
  H32      1.0000 0.36145  0.68285  0.67172  Biso   1.000  H
  H33      1.0000 0.66531  0.37899  0.67172  Biso   1.000  H
  H34      1.0000 0.66531  0.16291  0.67172  Biso   1.000  H
  H35      1.0000 0.14537  0.68285  0.36787  Biso   1.000  H
  H36      1.0000 0.36145  0.68285  0.15178  Biso   1.000  H
  H37      1.0000 0.75341  0.77095  0.27977  Biso   1.000  H
  H38      1.0000 0.75341  0.77095  0.06368  Biso   1.000  H
  H39      1.0000 0.05727  0.29089  0.75983  Biso   1.000  H
  H40      1.0000 0.27335  0.07481  0.75983  Biso   1.000  H
  H41      1.0000 0.27335  0.77095  0.06368  Biso   1.000  H
  H42      1.0000 0.05727  0.77095  0.27977  Biso   1.000  H
  H43      1.0000 0.75341  0.29089  0.75983  Biso   1.000  H
  H44      1.0000 0.75341  0.07481  0.75983  Biso   1.000  H
  H45      1.0000 0.05727  0.77095  0.75983  Biso   1.000  H
  H46      1.0000 0.27335  0.77095  0.75983  Biso   1.000  H
  H47      1.0000 0.75341  0.29089  0.06368  Biso   1.000  H
  H48      1.0000 0.75341  0.07481  0.27977  Biso   1.000  H
  C49      1.0000 0.68299  0.70053  0.17851  Biso   1.000  C
  C50      1.0000 0.68299  0.70053  0.30578  Biso   1.000  C
  C51      1.0000 0.17210  0.31690  0.68940  Biso   1.000  C
  C52      1.0000 0.29936  0.18964  0.68940  Biso   1.000  C
  C53      1.0000 0.68299  0.18964  0.30578  Biso   1.000  C
  C54      1.0000 0.68299  0.31690  0.17851  Biso   1.000  C
  C55      1.0000 0.17210  0.70053  0.68940  Biso   1.000  C
  C56      1.0000 0.29936  0.70053  0.68940  Biso   1.000  C
  C57      1.0000 0.68299  0.31690  0.68940  Biso   1.000  C
  C58      1.0000 0.68299  0.18964  0.68940  Biso   1.000  C
  C59      1.0000 0.17210  0.70053  0.30578  Biso   1.000  C
  C60      1.0000 0.29936  0.70053  0.17851  Biso   1.000  C
  C61      1.0000 0.73573  0.75327  0.25304  Biso   1.000  C
  C62      1.0000 0.73573  0.75327  0.12577  Biso   1.000  C
  C63      1.0000 0.11936  0.26416  0.74215  Biso   1.000  C
  C64      1.0000 0.24662  0.13690  0.74215  Biso   1.000  C
  C65      1.0000 0.24662  0.75327  0.12577  Biso   1.000  C
  C66      1.0000 0.11936  0.75327  0.25304  Biso   1.000  C
  C67      1.0000 0.73573  0.26416  0.74215  Biso   1.000  C
  C68      1.0000 0.73573  0.13690  0.74215  Biso   1.000  C
  C69      1.0000 0.11936  0.75327  0.74215  Biso   1.000  C
  C70      1.0000 0.24662  0.75327  0.74215  Biso   1.000  C
  C71      1.0000 0.73573  0.26416  0.12577  Biso   1.000  C
  C72      1.0000 0.73573  0.13690  0.25304  Biso   1.000  C
  C73      1.0000 0.59809  0.61562  0.32761  Biso   1.000  C
  C74      1.0000 0.65582  0.67336  0.26988  Biso   1.000  C
  C75      1.0000 0.32120  0.33874  0.60450  Biso   1.000  C
  C76      1.0000 0.26346  0.28100  0.66224  Biso   1.000  C
  C77      1.0000 0.59809  0.33874  0.32761  Biso   1.000  C
  C78      1.0000 0.65582  0.28100  0.26988  Biso   1.000  C
  C79      1.0000 0.32120  0.61562  0.60450  Biso   1.000  C
  C80      1.0000 0.26346  0.67336  0.66224  Biso   1.000  C
  C81      1.0000 0.59809  0.33874  0.60450  Biso   1.000  C
  C82      1.0000 0.65582  0.28100  0.66224  Biso   1.000  C
  C83      1.0000 0.32120  0.61562  0.32761  Biso   1.000  C
  C84      1.0000 0.26346  0.67336  0.26988  Biso   1.000  C
  C85      1.0000 0.82064  0.83817  0.10394  Biso   1.000  C
  C86      1.0000 0.76290  0.78044  0.16167  Biso   1.000  C
  C87      1.0000 0.09752  0.11506  0.82705  Biso   1.000  C
  C88      1.0000 0.15526  0.17279  0.76931  Biso   1.000  C
  C89      1.0000 0.09752  0.83817  0.10394  Biso   1.000  C
  C90      1.0000 0.15526  0.78044  0.16167  Biso   1.000  C
  C91      1.0000 0.82064  0.11506  0.82705  Biso   1.000  C
  C92      1.0000 0.76290  0.17279  0.76931  Biso   1.000  C
  C93      1.0000 0.09752  0.83817  0.82705  Biso   1.000  C
  C94      1.0000 0.15526  0.78044  0.76931  Biso   1.000  C
  C95      1.0000 0.82064  0.11506  0.10394  Biso   1.000  C
  C96      1.0000 0.76290  0.17279  0.16167  Biso   1.000  C
  O27      1.0000 0.45964  0.47718  0.46606  Biso   1.000  O
  O28      1.0000 0.95908  0.97662  0.96549  Biso   1.000  O
  O29      1.0000 0.57555  0.59309  0.28966  Biso   1.000  O
  O30      1.0000 0.57555  0.59309  0.41064  Biso   1.000  O
  O31      1.0000 0.28324  0.42176  0.58197  Biso   1.000  O
  O32      1.0000 0.40423  0.30078  0.58197  Biso   1.000  O
  O33      1.0000 0.57555  0.30078  0.41064  Biso   1.000  O
  O34      1.0000 0.57555  0.42176  0.28966  Biso   1.000  O
  O35      1.0000 0.28324  0.59309  0.58197  Biso   1.000  O
  O36      1.0000 0.40423  0.59309  0.58197  Biso   1.000  O
  O37      1.0000 0.57555  0.42176  0.58197  Biso   1.000  O
  O38      1.0000 0.57555  0.30078  0.58197  Biso   1.000  O
  O39      1.0000 0.28324  0.59309  0.41064  Biso   1.000  O
  O40      1.0000 0.40423  0.59309  0.28966  Biso   1.000  O
  O41      1.0000 0.84317  0.86071  0.14189  Biso   1.000  O
  O42      1.0000 0.84317  0.86071  0.02091  Biso   1.000  O
  O43      1.0000 0.01450  0.15302  0.84958  Biso   1.000  O
  O44      1.0000 0.13548  0.03203  0.84958  Biso   1.000  O
  O45      1.0000 0.13548  0.86071  0.02091  Biso   1.000  O
  O46      1.0000 0.01450  0.86071  0.14189  Biso   1.000  O
  O47      1.0000 0.84317  0.15302  0.84958  Biso   1.000  O
  O48      1.0000 0.84317  0.03203  0.84958  Biso   1.000  O
  O49      1.0000 0.01450  0.86071  0.84958  Biso   1.000  O
  O50      1.0000 0.13548  0.86071  0.84958  Biso   1.000  O
  O51      1.0000 0.84317  0.15302  0.02091  Biso   1.000  O
