data_image0
_cell_length_a       18.2662
_cell_length_b       18.2662
_cell_length_c       18.2662
_cell_angle_alpha    60
_cell_angle_beta     60
_cell_angle_gamma    60

_symmetry_space_group_name_H-M    "P 1"
_symmetry_int_tables_number       1

loop_
  _symmetry_equiv_pos_as_xyz
  'x, y, z'

loop_
  _atom_site_label
  _atom_site_occupancy
  _atom_site_fract_x
  _atom_site_fract_y
  _atom_site_fract_z
  _atom_site_thermal_displace_type
  _atom_site_B_iso_or_equiv
  _atom_site_type_symbol
  C1       1.0000 0.29353  0.29352  0.11943  Biso   1.000  C
  C2       1.0000 0.29353  0.29352  0.29352  Biso   1.000  C
  C3       1.0000 0.11944  0.29352  0.29352  Biso   1.000  C
  C4       1.0000 0.29353  0.11943  0.29352  Biso   1.000  C
  C5       1.0000 0.70647  0.70648  0.88057  Biso   1.000  C
  C6       1.0000 0.70647  0.70648  0.70648  Biso   1.000  C
  C7       1.0000 0.70647  0.88057  0.70648  Biso   1.000  C
  C8       1.0000 0.88056  0.70648  0.70648  Biso   1.000  C
  C9       1.0000 0.45570  0.45570  0.93590  Biso   1.000  C
  C10      1.0000 0.45570  0.45570  0.15270  Biso   1.000  C
  C11      1.0000 0.93590  0.15270  0.45570  Biso   1.000  C
  C12      1.0000 0.15270  0.93590  0.45570  Biso   1.000  C
  C13      1.0000 0.45570  0.93590  0.15270  Biso   1.000  C
  C14      1.0000 0.45570  0.15270  0.93590  Biso   1.000  C
  C15      1.0000 0.93590  0.45570  0.45570  Biso   1.000  C
  C16      1.0000 0.15270  0.45570  0.45570  Biso   1.000  C
  C17      1.0000 0.45570  0.15270  0.45570  Biso   1.000  C
  C18      1.0000 0.45570  0.93590  0.45570  Biso   1.000  C
  C19      1.0000 0.93590  0.45570  0.15270  Biso   1.000  C
  C20      1.0000 0.15270  0.45570  0.93590  Biso   1.000  C
  C21      1.0000 0.54430  0.54430  0.06410  Biso   1.000  C
  C22      1.0000 0.54430  0.54430  0.84730  Biso   1.000  C
  C23      1.0000 0.84730  0.06410  0.54430  Biso   1.000  C
  C24      1.0000 0.06410  0.84730  0.54430  Biso   1.000  C
  C25      1.0000 0.06410  0.54430  0.84730  Biso   1.000  C
  C26      1.0000 0.84730  0.54430  0.06410  Biso   1.000  C
  C27      1.0000 0.54430  0.06410  0.54430  Biso   1.000  C
  C28      1.0000 0.54430  0.84730  0.54430  Biso   1.000  C
  C29      1.0000 0.84730  0.54430  0.54430  Biso   1.000  C
  C30      1.0000 0.06410  0.54430  0.54430  Biso   1.000  C
  C31      1.0000 0.54430  0.06410  0.84730  Biso   1.000  C
  C32      1.0000 0.54430  0.84730  0.06410  Biso   1.000  C
  C33      1.0000 0.47342  0.47342  0.96246  Biso   1.000  C
  C34      1.0000 0.47342  0.47342  0.09070  Biso   1.000  C
  C35      1.0000 0.96246  0.09070  0.47342  Biso   1.000  C
  C36      1.0000 0.09070  0.96246  0.47342  Biso   1.000  C
  C37      1.0000 0.47342  0.96246  0.09070  Biso   1.000  C
  C38      1.0000 0.47342  0.09070  0.96246  Biso   1.000  C
  C39      1.0000 0.96246  0.47342  0.47342  Biso   1.000  C
  C40      1.0000 0.09070  0.47342  0.47342  Biso   1.000  C
  C41      1.0000 0.47342  0.09070  0.47342  Biso   1.000  C
  C42      1.0000 0.47342  0.96246  0.47342  Biso   1.000  C
  C43      1.0000 0.96246  0.47342  0.09070  Biso   1.000  C
  C44      1.0000 0.09070  0.47342  0.96246  Biso   1.000  C
  C45      1.0000 0.52658  0.52658  0.03754  Biso   1.000  C
  C46      1.0000 0.52658  0.52658  0.90930  Biso   1.000  C
  C47      1.0000 0.90930  0.03754  0.52658  Biso   1.000  C
  C48      1.0000 0.03754  0.90930  0.52658  Biso   1.000  C
  C49      1.0000 0.03754  0.52658  0.90930  Biso   1.000  C
  C50      1.0000 0.90930  0.52658  0.03754  Biso   1.000  C
  C51      1.0000 0.52658  0.03754  0.52658  Biso   1.000  C
  C52      1.0000 0.52658  0.90930  0.52658  Biso   1.000  C
  C53      1.0000 0.90930  0.52658  0.52658  Biso   1.000  C
  C54      1.0000 0.03754  0.52658  0.52658  Biso   1.000  C
  C55      1.0000 0.52658  0.03754  0.90930  Biso   1.000  C
  C56      1.0000 0.52658  0.90930  0.03754  Biso   1.000  C
  C57      1.0000 0.38858  0.38858  0.11142  Biso   1.000  C
  C58      1.0000 0.44625  0.44625  0.05375  Biso   1.000  C
  C59      1.0000 0.11142  0.11142  0.38858  Biso   1.000  C
  C60      1.0000 0.05375  0.05375  0.44625  Biso   1.000  C
  C61      1.0000 0.38858  0.11142  0.11142  Biso   1.000  C
  C62      1.0000 0.44625  0.05375  0.05375  Biso   1.000  C
  C63      1.0000 0.11142  0.38858  0.38858  Biso   1.000  C
  C64      1.0000 0.05375  0.44625  0.44625  Biso   1.000  C
  C65      1.0000 0.38858  0.11142  0.38858  Biso   1.000  C
  C66      1.0000 0.44625  0.05375  0.44625  Biso   1.000  C
  C67      1.0000 0.11142  0.38858  0.11142  Biso   1.000  C
  C68      1.0000 0.05375  0.44625  0.05375  Biso   1.000  C
  C69      1.0000 0.61142  0.61142  0.88858  Biso   1.000  C
  C70      1.0000 0.55375  0.55375  0.94625  Biso   1.000  C
  C71      1.0000 0.88858  0.88858  0.61142  Biso   1.000  C
  C72      1.0000 0.94625  0.94625  0.55375  Biso   1.000  C
  C73      1.0000 0.88858  0.61142  0.88858  Biso   1.000  C
  C74      1.0000 0.94625  0.55375  0.94625  Biso   1.000  C
  C75      1.0000 0.61142  0.88858  0.61142  Biso   1.000  C
  C76      1.0000 0.55375  0.94625  0.55375  Biso   1.000  C
  C77      1.0000 0.88858  0.61142  0.61142  Biso   1.000  C
  C78      1.0000 0.94625  0.55375  0.55375  Biso   1.000  C
  C79      1.0000 0.61142  0.88858  0.88858  Biso   1.000  C
  C80      1.0000 0.55375  0.94625  0.94625  Biso   1.000  C
  C81      1.0000 0.25000  0.25000  0.25000  Biso   1.000  C
  C82      1.0000 0.75000  0.75000  0.75000  Biso   1.000  C
  C83      1.0000 0.36617  0.36617  0.07287  Biso   1.000  C
  C84      1.0000 0.36617  0.36617  0.19479  Biso   1.000  C
  C85      1.0000 0.07287  0.19479  0.36617  Biso   1.000  C
  C86      1.0000 0.19479  0.07287  0.36617  Biso   1.000  C
  C87      1.0000 0.36617  0.07287  0.19479  Biso   1.000  C
  C88      1.0000 0.36617  0.19479  0.07287  Biso   1.000  C
  C89      1.0000 0.07287  0.36617  0.36617  Biso   1.000  C
  C90      1.0000 0.19479  0.36617  0.36617  Biso   1.000  C
  C91      1.0000 0.36617  0.19479  0.36617  Biso   1.000  C
  C92      1.0000 0.36617  0.07287  0.36617  Biso   1.000  C
  C93      1.0000 0.07287  0.36617  0.19479  Biso   1.000  C
  C94      1.0000 0.19479  0.36617  0.07287  Biso   1.000  C
  C95      1.0000 0.63383  0.63383  0.92713  Biso   1.000  C
  C96      1.0000 0.63383  0.63383  0.80521  Biso   1.000  C
  C97      1.0000 0.80521  0.92713  0.63383  Biso   1.000  C
  C98      1.0000 0.92713  0.80521  0.63383  Biso   1.000  C
  C99      1.0000 0.92713  0.63383  0.80521  Biso   1.000  C
  C100     1.0000 0.80521  0.63383  0.92713  Biso   1.000  C
  C101     1.0000 0.63383  0.92713  0.63383  Biso   1.000  C
  C102     1.0000 0.63383  0.80521  0.63383  Biso   1.000  C
  C103     1.0000 0.80521  0.63383  0.63383  Biso   1.000  C
  C104     1.0000 0.92713  0.63383  0.63383  Biso   1.000  C
  C105     1.0000 0.63383  0.92713  0.80521  Biso   1.000  C
  C106     1.0000 0.63383  0.80521  0.92713  Biso   1.000  C
  O1       1.0000 0.99341  0.97375  0.87165  Biso   1.000  O
  O2       1.0000 0.99345  0.14594  0.87160  Biso   1.000  O
  O3       1.0000 0.16564  0.97375  0.87165  Biso   1.000  O
  O4       1.0000 0.99346  0.97371  0.04383  Biso   1.000  O
  O5       1.0000 0.57640  0.56300  0.46090  Biso   1.000  O
  O6       1.0000 0.57635  0.39081  0.46095  Biso   1.000  O
  O7       1.0000 0.40416  0.56300  0.46090  Biso   1.000  O
  O8       1.0000 0.57635  0.56305  0.28871  Biso   1.000  O
  O9       1.0000 0.81412  0.17338  0.69331  Biso   1.000  O
  O10      1.0000 0.19329  0.79520  0.69131  Biso   1.000  O
  O11      1.0000 0.81352  0.79620  0.07128  Biso   1.000  O
  O12      1.0000 0.81513  0.31030  0.69232  Biso   1.000  O
  O13      1.0000 0.81313  0.31130  0.07148  Biso   1.000  O
  O14      1.0000 0.19310  0.31011  0.69171  Biso   1.000  O
  O15      1.0000 0.32364  0.79542  0.07127  Biso   1.000  O
  O16      1.0000 0.32465  0.79342  0.69310  Biso   1.000  O
  O17      1.0000 0.32345  0.17339  0.69410  Biso   1.000  O
  O18      1.0000 0.18672  0.79442  0.20820  Biso   1.000  O
  O19      1.0000 0.80854  0.17358  0.20920  Biso   1.000  O
  O20      1.0000 0.80954  0.79381  0.20801  Biso   1.000  O
  O21      1.0000 0.75569  0.36338  0.63924  Biso   1.000  O
  O22      1.0000 0.37652  0.74155  0.64123  Biso   1.000  O
  O23      1.0000 0.75628  0.74055  0.26127  Biso   1.000  O
  O24      1.0000 0.75467  0.22646  0.64023  Biso   1.000  O
  O25      1.0000 0.75667  0.22545  0.26107  Biso   1.000  O
  O26      1.0000 0.37671  0.22664  0.64084  Biso   1.000  O
  O27      1.0000 0.24616  0.74134  0.26128  Biso   1.000  O
  O28      1.0000 0.24516  0.74334  0.63945  Biso   1.000  O
  O29      1.0000 0.24636  0.36337  0.63845  Biso   1.000  O
  O30      1.0000 0.38309  0.74234  0.12435  Biso   1.000  O
  O31      1.0000 0.76127  0.36317  0.12334  Biso   1.000  O
  O32      1.0000 0.76026  0.74294  0.12454  Biso   1.000  O
  O33      1.0000 0.84154  0.21174  0.71973  Biso   1.000  O
  O34      1.0000 0.89984  0.15343  0.77804  Biso   1.000  O
  O35      1.0000 0.23144  0.82184  0.10963  Biso   1.000  O
  O36      1.0000 0.17314  0.88014  0.05133  Biso   1.000  O
  O37      1.0000 0.72827  0.32501  0.61282  Biso   1.000  O
  O38      1.0000 0.66996  0.38332  0.55451  Biso   1.000  O
  O39      1.0000 0.33836  0.71491  0.22292  Biso   1.000  O
  O40      1.0000 0.39667  0.65661  0.28122  Biso   1.000  O
  O41      1.0000 0.84134  0.82164  0.10983  Biso   1.000  O
  O42      1.0000 0.89937  0.87967  0.05180  Biso   1.000  O
  O43      1.0000 0.23164  0.21194  0.71953  Biso   1.000  O
  O44      1.0000 0.17361  0.15391  0.77756  Biso   1.000  O
  O45      1.0000 0.72846  0.71511  0.22272  Biso   1.000  O
  O46      1.0000 0.67044  0.65708  0.28075  Biso   1.000  O
  O47      1.0000 0.33817  0.32481  0.61302  Biso   1.000  O
  O48      1.0000 0.39620  0.38284  0.55499  Biso   1.000  O
  O49      1.0000 0.23184  0.82144  0.71933  Biso   1.000  O
  O50      1.0000 0.17381  0.87947  0.77736  Biso   1.000  O
  O51      1.0000 0.84114  0.21214  0.11003  Biso   1.000  O
  O52      1.0000 0.89917  0.15411  0.05200  Biso   1.000  O
  O53      1.0000 0.33796  0.71532  0.61321  Biso   1.000  O
  O54      1.0000 0.39599  0.65729  0.55519  Biso   1.000  O
  O55      1.0000 0.72867  0.32461  0.22252  Biso   1.000  O
  O56      1.0000 0.67064  0.38264  0.28055  Biso   1.000  O
  O57      1.0000 0.92230  0.06973  0.79890  Biso   1.000  O
  O58      1.0000 0.92038  0.90260  0.96846  Biso   1.000  O
  O59      1.0000 0.08902  0.90224  0.79932  Biso   1.000  O
  O60      1.0000 0.92071  0.19382  0.80049  Biso   1.000  O
  O61      1.0000 0.09026  0.19332  0.79857  Biso   1.000  O
  O62      1.0000 0.92113  0.19417  0.96720  Biso   1.000  O
  O63      1.0000 0.21352  0.90101  0.96762  Biso   1.000  O
  O64      1.0000 0.21302  0.07056  0.80049  Biso   1.000  O
  O65      1.0000 0.21388  0.90143  0.80014  Biso   1.000  O
  O66      1.0000 0.08943  0.90260  0.09171  Biso   1.000  O
  O67      1.0000 0.92230  0.90067  0.09121  Biso   1.000  O
  O68      1.0000 0.92194  0.06931  0.09206  Biso   1.000  O
  O69      1.0000 0.64751  0.46702  0.53364  Biso   1.000  O
  O70      1.0000 0.64943  0.63415  0.36409  Biso   1.000  O
  O71      1.0000 0.48079  0.63451  0.53323  Biso   1.000  O
  O72      1.0000 0.64910  0.34294  0.53205  Biso   1.000  O
  O73      1.0000 0.47955  0.34343  0.53398  Biso   1.000  O
  O74      1.0000 0.64868  0.34258  0.36534  Biso   1.000  O
  O75      1.0000 0.35629  0.63574  0.36493  Biso   1.000  O
  O76      1.0000 0.35679  0.46619  0.53205  Biso   1.000  O
  O77      1.0000 0.35593  0.63533  0.53241  Biso   1.000  O
  O78      1.0000 0.48038  0.63415  0.24084  Biso   1.000  O
  O79      1.0000 0.64750  0.63608  0.24134  Biso   1.000  O
  O80      1.0000 0.64787  0.46744  0.24048  Biso   1.000  O
  O81      1.0000 0.03649  0.01679  0.91468  Biso   1.000  O
  O82      1.0000 0.53332  0.51996  0.41787  Biso   1.000  O
  O83      1.0000 0.11718  0.81801  0.71265  Biso   1.000  O
  O84      1.0000 0.35662  0.81475  0.71591  Biso   1.000  O
  O85      1.0000 0.45263  0.71874  0.61990  Biso   1.000  O
  O86      1.0000 0.21318  0.72200  0.61664  Biso   1.000  O
  O87      1.0000 0.35543  0.09728  0.71715  Biso   1.000  O
  O88      1.0000 0.45281  0.19467  0.61976  Biso   1.000  O
  O89      1.0000 0.83460  0.81925  0.99518  Biso   1.000  O
  O90      1.0000 0.73721  0.72187  0.09256  Biso   1.000  O
  O91      1.0000 0.83761  0.34228  0.71397  Biso   1.000  O
  O92      1.0000 0.83447  0.34328  0.99536  Biso   1.000  O
  O93      1.0000 0.45920  0.72068  0.09236  Biso   1.000  O
  O94      1.0000 0.73846  0.43929  0.09137  Biso   1.000  O
  O95      1.0000 0.11700  0.34208  0.71279  Biso   1.000  O
  O96      1.0000 0.21438  0.43947  0.61540  Biso   1.000  O
  O97      1.0000 0.83259  0.81488  0.23999  Biso   1.000  O
  O98      1.0000 0.73521  0.71750  0.33737  Biso   1.000  O
  O99      1.0000 0.21418  0.71886  0.33739  Biso   1.000  O
  O100     1.0000 0.83135  0.09747  0.24118  Biso   1.000  O
  O101     1.0000 0.73534  0.19347  0.33718  Biso   1.000  O
  O102     1.0000 0.11060  0.81607  0.24019  Biso   1.000  O
  O103     1.0000 0.73220  0.19447  0.61858  Biso   1.000  O
  O104     1.0000 0.83577  0.09726  0.71579  Biso   1.000  O
  O105     1.0000 0.73403  0.43949  0.61676  Biso   1.000  O
