data_image0
_cell_length_a       18.255
_cell_length_b       18.255
_cell_length_c       18.255
_cell_angle_alpha    60
_cell_angle_beta     60
_cell_angle_gamma    60

_symmetry_space_group_name_H-M    "P 1"
_symmetry_int_tables_number       1

loop_
  _symmetry_equiv_pos_as_xyz
  'x, y, z'

loop_
  _atom_site_label
  _atom_site_occupancy
  _atom_site_fract_x
  _atom_site_fract_y
  _atom_site_fract_z
  _atom_site_thermal_displace_type
  _atom_site_B_iso_or_equiv
  _atom_site_type_symbol
  C1       1.0000 0.29354  0.29354  0.11938  Biso   1.000  C
  C2       1.0000 0.29354  0.29354  0.29354  Biso   1.000  C
  C3       1.0000 0.11938  0.29354  0.29354  Biso   1.000  C
  C4       1.0000 0.29354  0.11938  0.29354  Biso   1.000  C
  C5       1.0000 0.70646  0.70646  0.88062  Biso   1.000  C
  C6       1.0000 0.70646  0.70646  0.70646  Biso   1.000  C
  C7       1.0000 0.70646  0.88062  0.70646  Biso   1.000  C
  C8       1.0000 0.88062  0.70646  0.70646  Biso   1.000  C
  C9       1.0000 0.45570  0.45570  0.93630  Biso   1.000  C
  C10      1.0000 0.45570  0.45570  0.15230  Biso   1.000  C
  C11      1.0000 0.93630  0.15230  0.45570  Biso   1.000  C
  C12      1.0000 0.15230  0.93630  0.45570  Biso   1.000  C
  C13      1.0000 0.45570  0.93630  0.15230  Biso   1.000  C
  C14      1.0000 0.45570  0.15230  0.93630  Biso   1.000  C
  C15      1.0000 0.93630  0.45570  0.45570  Biso   1.000  C
  C16      1.0000 0.15230  0.45570  0.45570  Biso   1.000  C
  C17      1.0000 0.45570  0.15230  0.45570  Biso   1.000  C
  C18      1.0000 0.45570  0.93630  0.45570  Biso   1.000  C
  C19      1.0000 0.93630  0.45570  0.15230  Biso   1.000  C
  C20      1.0000 0.15230  0.45570  0.93630  Biso   1.000  C
  C21      1.0000 0.54430  0.54430  0.06370  Biso   1.000  C
  C22      1.0000 0.54430  0.54430  0.84770  Biso   1.000  C
  C23      1.0000 0.84770  0.06370  0.54430  Biso   1.000  C
  C24      1.0000 0.06370  0.84770  0.54430  Biso   1.000  C
  C25      1.0000 0.06370  0.54430  0.84770  Biso   1.000  C
  C26      1.0000 0.84770  0.54430  0.06370  Biso   1.000  C
  C27      1.0000 0.54430  0.06370  0.54430  Biso   1.000  C
  C28      1.0000 0.54430  0.84770  0.54430  Biso   1.000  C
  C29      1.0000 0.84770  0.54430  0.54430  Biso   1.000  C
  C30      1.0000 0.06370  0.54430  0.54430  Biso   1.000  C
  C31      1.0000 0.54430  0.06370  0.84770  Biso   1.000  C
  C32      1.0000 0.54430  0.84770  0.06370  Biso   1.000  C
  C33      1.0000 0.47332  0.47332  0.96310  Biso   1.000  C
  C34      1.0000 0.47332  0.47332  0.09026  Biso   1.000  C
  C35      1.0000 0.96310  0.09026  0.47332  Biso   1.000  C
  C36      1.0000 0.09026  0.96310  0.47332  Biso   1.000  C
  C37      1.0000 0.47332  0.96310  0.09026  Biso   1.000  C
  C38      1.0000 0.47332  0.09026  0.96310  Biso   1.000  C
  C39      1.0000 0.96310  0.47332  0.47332  Biso   1.000  C
  C40      1.0000 0.09026  0.47332  0.47332  Biso   1.000  C
  C41      1.0000 0.47332  0.09026  0.47332  Biso   1.000  C
  C42      1.0000 0.47332  0.96310  0.47332  Biso   1.000  C
  C43      1.0000 0.96310  0.47332  0.09026  Biso   1.000  C
  C44      1.0000 0.09026  0.47332  0.96310  Biso   1.000  C
  C45      1.0000 0.52668  0.52668  0.03690  Biso   1.000  C
  C46      1.0000 0.52668  0.52668  0.90974  Biso   1.000  C
  C47      1.0000 0.90974  0.03690  0.52668  Biso   1.000  C
  C48      1.0000 0.03690  0.90974  0.52668  Biso   1.000  C
  C49      1.0000 0.03690  0.52668  0.90974  Biso   1.000  C
  C50      1.0000 0.90974  0.52668  0.03690  Biso   1.000  C
  C51      1.0000 0.52668  0.03690  0.52668  Biso   1.000  C
  C52      1.0000 0.52668  0.90974  0.52668  Biso   1.000  C
  C53      1.0000 0.90974  0.52668  0.52668  Biso   1.000  C
  C54      1.0000 0.03690  0.52668  0.52668  Biso   1.000  C
  C55      1.0000 0.52668  0.03690  0.90974  Biso   1.000  C
  C56      1.0000 0.52668  0.90974  0.03690  Biso   1.000  C
  C57      1.0000 0.38870  0.38870  0.11130  Biso   1.000  C
  C58      1.0000 0.44580  0.44580  0.05420  Biso   1.000  C
  C59      1.0000 0.11130  0.11130  0.38870  Biso   1.000  C
  C60      1.0000 0.05420  0.05420  0.44580  Biso   1.000  C
  C61      1.0000 0.38870  0.11130  0.11130  Biso   1.000  C
  C62      1.0000 0.44580  0.05420  0.05420  Biso   1.000  C
  C63      1.0000 0.11130  0.38870  0.38870  Biso   1.000  C
  C64      1.0000 0.05420  0.44580  0.44580  Biso   1.000  C
  C65      1.0000 0.38870  0.11130  0.38870  Biso   1.000  C
  C66      1.0000 0.44580  0.05420  0.44580  Biso   1.000  C
  C67      1.0000 0.11130  0.38870  0.11130  Biso   1.000  C
  C68      1.0000 0.05420  0.44580  0.05420  Biso   1.000  C
  C69      1.0000 0.61130  0.61130  0.88870  Biso   1.000  C
  C70      1.0000 0.55420  0.55420  0.94580  Biso   1.000  C
  C71      1.0000 0.88870  0.88870  0.61130  Biso   1.000  C
  C72      1.0000 0.94580  0.94580  0.55420  Biso   1.000  C
  C73      1.0000 0.88870  0.61130  0.88870  Biso   1.000  C
  C74      1.0000 0.94580  0.55420  0.94580  Biso   1.000  C
  C75      1.0000 0.61130  0.88870  0.61130  Biso   1.000  C
  C76      1.0000 0.55420  0.94580  0.55420  Biso   1.000  C
  C77      1.0000 0.88870  0.61130  0.61130  Biso   1.000  C
  C78      1.0000 0.94580  0.55420  0.55420  Biso   1.000  C
  C79      1.0000 0.61130  0.88870  0.88870  Biso   1.000  C
  C80      1.0000 0.55420  0.94580  0.94580  Biso   1.000  C
  C81      1.0000 0.25000  0.25000  0.25000  Biso   1.000  C
  C82      1.0000 0.75000  0.75000  0.75000  Biso   1.000  C
  C83      1.0000 0.36613  0.36613  0.07303  Biso   1.000  C
  C84      1.0000 0.36613  0.36613  0.19471  Biso   1.000  C
  C85      1.0000 0.07303  0.19471  0.36613  Biso   1.000  C
  C86      1.0000 0.19471  0.07303  0.36613  Biso   1.000  C
  C87      1.0000 0.36613  0.07303  0.19471  Biso   1.000  C
  C88      1.0000 0.36613  0.19471  0.07303  Biso   1.000  C
  C89      1.0000 0.07303  0.36613  0.36613  Biso   1.000  C
  C90      1.0000 0.19471  0.36613  0.36613  Biso   1.000  C
  C91      1.0000 0.36613  0.19471  0.36613  Biso   1.000  C
  C92      1.0000 0.36613  0.07303  0.36613  Biso   1.000  C
  C93      1.0000 0.07303  0.36613  0.19471  Biso   1.000  C
  C94      1.0000 0.19471  0.36613  0.07303  Biso   1.000  C
  C95      1.0000 0.63387  0.63387  0.92697  Biso   1.000  C
  C96      1.0000 0.63387  0.63387  0.80529  Biso   1.000  C
  C97      1.0000 0.80529  0.92697  0.63387  Biso   1.000  C
  C98      1.0000 0.92697  0.80529  0.63387  Biso   1.000  C
  C99      1.0000 0.92697  0.63387  0.80529  Biso   1.000  C
  C100     1.0000 0.80529  0.63387  0.92697  Biso   1.000  C
  C101     1.0000 0.63387  0.92697  0.63387  Biso   1.000  C
  C102     1.0000 0.63387  0.80529  0.63387  Biso   1.000  C
  C103     1.0000 0.80529  0.63387  0.63387  Biso   1.000  C
  C104     1.0000 0.92697  0.63387  0.63387  Biso   1.000  C
  C105     1.0000 0.63387  0.92697  0.80529  Biso   1.000  C
  C106     1.0000 0.63387  0.80529  0.92697  Biso   1.000  C
  O1       1.0000 0.47775  0.34565  0.67091  Biso   1.000  O
  O2       1.0000 0.65191  0.34566  0.49675  Biso   1.000  O
  O3       1.0000 0.47775  0.34565  0.49676  Biso   1.000  O
  O4       1.0000 0.47776  0.51980  0.49675  Biso   1.000  O
  O5       1.0000 0.06867  0.93144  0.90840  Biso   1.000  O
  O6       1.0000 0.89452  0.93144  0.08256  Biso   1.000  O
  O7       1.0000 0.06867  0.75730  0.08256  Biso   1.000  O
  O8       1.0000 0.06867  0.93145  0.08256  Biso   1.000  O
  O9       1.0000 0.61899  0.18357  0.85384  Biso   1.000  O
  O10      1.0000 0.83740  0.18357  0.63544  Biso   1.000  O
  O11      1.0000 0.31823  0.48433  0.33467  Biso   1.000  O
  O12      1.0000 0.31823  0.70274  0.33467  Biso   1.000  O
  O13      1.0000 0.31823  0.70274  0.63544  Biso   1.000  O
  O14      1.0000 0.31823  0.48433  0.85384  Biso   1.000  O
  O15      1.0000 0.61899  0.18357  0.33467  Biso   1.000  O
  O16      1.0000 0.83740  0.18357  0.33467  Biso   1.000  O
  O17      1.0000 0.83740  0.48433  0.33467  Biso   1.000  O
  O18      1.0000 0.61899  0.70274  0.33467  Biso   1.000  O
  O19      1.0000 0.31823  0.18357  0.63544  Biso   1.000  O
  O20      1.0000 0.31823  0.18357  0.85384  Biso   1.000  O
  O21      1.0000 0.92743  0.09354  0.72547  Biso   1.000  O
  O22      1.0000 0.70902  0.09354  0.94387  Biso   1.000  O
  O23      1.0000 0.22820  0.57436  0.24464  Biso   1.000  O
  O24      1.0000 0.22820  0.79277  0.24464  Biso   1.000  O
  O25      1.0000 0.22820  0.09354  0.94387  Biso   1.000  O
  O26      1.0000 0.22820  0.09354  0.72547  Biso   1.000  O
  O27      1.0000 0.92743  0.57436  0.24464  Biso   1.000  O
  O28      1.0000 0.70902  0.79277  0.24464  Biso   1.000  O
  O29      1.0000 0.70902  0.09354  0.24464  Biso   1.000  O
  O30      1.0000 0.92743  0.09354  0.24464  Biso   1.000  O
  O31      1.0000 0.22820  0.57436  0.94387  Biso   1.000  O
  O32      1.0000 0.22820  0.79277  0.72547  Biso   1.000  O
  O33      1.0000 0.68250  0.16528  0.82692  Biso   1.000  O
  O34      1.0000 0.81047  0.16528  0.69894  Biso   1.000  O
  O35      1.0000 0.29994  0.54783  0.31638  Biso   1.000  O
  O36      1.0000 0.29994  0.67581  0.31638  Biso   1.000  O
  O37      1.0000 0.29994  0.67581  0.69894  Biso   1.000  O
  O38      1.0000 0.29994  0.54783  0.82692  Biso   1.000  O
  O39      1.0000 0.68250  0.16528  0.31638  Biso   1.000  O
  O40      1.0000 0.81047  0.16528  0.31638  Biso   1.000  O
  O41      1.0000 0.81047  0.54783  0.31638  Biso   1.000  O
  O42      1.0000 0.68250  0.67581  0.31638  Biso   1.000  O
  O43      1.0000 0.29994  0.16528  0.69894  Biso   1.000  O
  O44      1.0000 0.29994  0.16528  0.82692  Biso   1.000  O
  O45      1.0000 0.86393  0.11182  0.75240  Biso   1.000  O
  O46      1.0000 0.73595  0.11182  0.88037  Biso   1.000  O
  O47      1.0000 0.24648  0.60129  0.26293  Biso   1.000  O
  O48      1.0000 0.24648  0.72927  0.26293  Biso   1.000  O
  O49      1.0000 0.24648  0.11182  0.88037  Biso   1.000  O
  O50      1.0000 0.24648  0.11182  0.75240  Biso   1.000  O
  O51      1.0000 0.86393  0.60129  0.26293  Biso   1.000  O
  O52      1.0000 0.73595  0.72927  0.26293  Biso   1.000  O
  O53      1.0000 0.73595  0.11182  0.26293  Biso   1.000  O
  O54      1.0000 0.86393  0.11182  0.26293  Biso   1.000  O
  O55      1.0000 0.24648  0.60129  0.88037  Biso   1.000  O
  O56      1.0000 0.24648  0.72927  0.75240  Biso   1.000  O
  O57      1.0000 0.66008  0.25041  0.67908  Biso   1.000  O
  O58      1.0000 0.71822  0.19227  0.73722  Biso   1.000  O
  O59      1.0000 0.38251  0.52797  0.40151  Biso   1.000  O
  O60      1.0000 0.32437  0.58611  0.34337  Biso   1.000  O
  O61      1.0000 0.38251  0.52797  0.67908  Biso   1.000  O
  O62      1.0000 0.32437  0.58611  0.73722  Biso   1.000  O
  O63      1.0000 0.66008  0.25041  0.40151  Biso   1.000  O
  O64      1.0000 0.71822  0.19227  0.34337  Biso   1.000  O
  O65      1.0000 0.66008  0.52797  0.40151  Biso   1.000  O
  O66      1.0000 0.71822  0.58611  0.34337  Biso   1.000  O
  O67      1.0000 0.38251  0.25041  0.67908  Biso   1.000  O
  O68      1.0000 0.32437  0.19227  0.73722  Biso   1.000  O
  O69      1.0000 0.88635  0.02670  0.90023  Biso   1.000  O
  O70      1.0000 0.82821  0.08483  0.84209  Biso   1.000  O
  O71      1.0000 0.16391  0.74913  0.17780  Biso   1.000  O
  O72      1.0000 0.22205  0.69099  0.23594  Biso   1.000  O
  O73      1.0000 0.16391  0.02670  0.90023  Biso   1.000  O
  O74      1.0000 0.22205  0.08483  0.84209  Biso   1.000  O
  O75      1.0000 0.88635  0.74913  0.17780  Biso   1.000  O
  O76      1.0000 0.82821  0.69099  0.23594  Biso   1.000  O
  O77      1.0000 0.88635  0.02670  0.17780  Biso   1.000  O
  O78      1.0000 0.82821  0.08483  0.23594  Biso   1.000  O
  O79      1.0000 0.16391  0.74913  0.90023  Biso   1.000  O
  O80      1.0000 0.22205  0.69099  0.84209  Biso   1.000  O
  O81      1.0000 0.52129  0.38919  0.54030  Biso   1.000  O
  O82      1.0000 0.02513  0.88791  0.03902  Biso   1.000  O
  O83      1.0000 0.57656  0.27280  0.71780  Biso   1.000  O
  O84      1.0000 0.69880  0.27280  0.59557  Biso   1.000  O
  O85      1.0000 0.40491  0.44446  0.42391  Biso   1.000  O
  O86      1.0000 0.40491  0.56669  0.42391  Biso   1.000  O
  O87      1.0000 0.40491  0.56669  0.59557  Biso   1.000  O
  O88      1.0000 0.40491  0.44446  0.71780  Biso   1.000  O
  O89      1.0000 0.57656  0.27280  0.42391  Biso   1.000  O
  O90      1.0000 0.69880  0.27280  0.42391  Biso   1.000  O
  O91      1.0000 0.69880  0.44446  0.42391  Biso   1.000  O
  O92      1.0000 0.57656  0.56669  0.42391  Biso   1.000  O
  O93      1.0000 0.40491  0.27280  0.59557  Biso   1.000  O
  O94      1.0000 0.40491  0.27280  0.71780  Biso   1.000  O
  O95      1.0000 0.96986  0.00430  0.86151  Biso   1.000  O
  O96      1.0000 0.84763  0.00430  0.98375  Biso   1.000  O
  O97      1.0000 0.14152  0.71041  0.15540  Biso   1.000  O
  O98      1.0000 0.14152  0.83264  0.15540  Biso   1.000  O
  O99      1.0000 0.14152  0.00430  0.98375  Biso   1.000  O
  O100     1.0000 0.14152  0.00430  0.86151  Biso   1.000  O
  O101     1.0000 0.96986  0.71041  0.15540  Biso   1.000  O
  O102     1.0000 0.84763  0.83264  0.15540  Biso   1.000  O
  O103     1.0000 0.84763  0.00430  0.15540  Biso   1.000  O
  O104     1.0000 0.96986  0.00430  0.15540  Biso   1.000  O
  O105     1.0000 0.14152  0.71041  0.98375  Biso   1.000  O
