data_image0
_cell_length_a       18.2965
_cell_length_b       18.2965
_cell_length_c       18.2965
_cell_angle_alpha    60
_cell_angle_beta     60
_cell_angle_gamma    60

_symmetry_space_group_name_H-M    "P 1"
_symmetry_int_tables_number       1

loop_
  _symmetry_equiv_pos_as_xyz
  'x, y, z'

loop_
  _atom_site_label
  _atom_site_occupancy
  _atom_site_fract_x
  _atom_site_fract_y
  _atom_site_fract_z
  _atom_site_thermal_displace_type
  _atom_site_B_iso_or_equiv
  _atom_site_type_symbol
  C1       1.0000 0.29344  0.29343  0.11970  Biso   1.000  C
  C2       1.0000 0.29344  0.29343  0.29343  Biso   1.000  C
  C3       1.0000 0.11971  0.29343  0.29343  Biso   1.000  C
  C4       1.0000 0.29344  0.11970  0.29343  Biso   1.000  C
  C5       1.0000 0.70656  0.70657  0.88030  Biso   1.000  C
  C6       1.0000 0.70656  0.70657  0.70657  Biso   1.000  C
  C7       1.0000 0.70656  0.88030  0.70657  Biso   1.000  C
  C8       1.0000 0.88029  0.70657  0.70657  Biso   1.000  C
  C9       1.0000 0.45520  0.45520  0.93480  Biso   1.000  C
  C10      1.0000 0.45520  0.45520  0.15480  Biso   1.000  C
  C11      1.0000 0.93480  0.15480  0.45520  Biso   1.000  C
  C12      1.0000 0.15480  0.93480  0.45520  Biso   1.000  C
  C13      1.0000 0.45520  0.93480  0.15480  Biso   1.000  C
  C14      1.0000 0.45520  0.15480  0.93480  Biso   1.000  C
  C15      1.0000 0.93480  0.45520  0.45520  Biso   1.000  C
  C16      1.0000 0.15480  0.45520  0.45520  Biso   1.000  C
  C17      1.0000 0.45520  0.15480  0.45520  Biso   1.000  C
  C18      1.0000 0.45520  0.93480  0.45520  Biso   1.000  C
  C19      1.0000 0.93480  0.45520  0.15480  Biso   1.000  C
  C20      1.0000 0.15480  0.45520  0.93480  Biso   1.000  C
  C21      1.0000 0.54480  0.54480  0.06520  Biso   1.000  C
  C22      1.0000 0.54480  0.54480  0.84520  Biso   1.000  C
  C23      1.0000 0.84520  0.06520  0.54480  Biso   1.000  C
  C24      1.0000 0.06520  0.84520  0.54480  Biso   1.000  C
  C25      1.0000 0.06520  0.54480  0.84520  Biso   1.000  C
  C26      1.0000 0.84520  0.54480  0.06520  Biso   1.000  C
  C27      1.0000 0.54480  0.06520  0.54480  Biso   1.000  C
  C28      1.0000 0.54480  0.84520  0.54480  Biso   1.000  C
  C29      1.0000 0.84520  0.54480  0.54480  Biso   1.000  C
  C30      1.0000 0.06520  0.54480  0.54480  Biso   1.000  C
  C31      1.0000 0.54480  0.06520  0.84520  Biso   1.000  C
  C32      1.0000 0.54480  0.84520  0.06520  Biso   1.000  C
  C33      1.0000 0.47339  0.47339  0.96175  Biso   1.000  C
  C34      1.0000 0.47339  0.47339  0.09147  Biso   1.000  C
  C35      1.0000 0.96175  0.09147  0.47339  Biso   1.000  C
  C36      1.0000 0.09147  0.96175  0.47339  Biso   1.000  C
  C37      1.0000 0.47339  0.96175  0.09147  Biso   1.000  C
  C38      1.0000 0.47339  0.09147  0.96175  Biso   1.000  C
  C39      1.0000 0.96175  0.47339  0.47339  Biso   1.000  C
  C40      1.0000 0.09147  0.47339  0.47339  Biso   1.000  C
  C41      1.0000 0.47339  0.09147  0.47339  Biso   1.000  C
  C42      1.0000 0.47339  0.96175  0.47339  Biso   1.000  C
  C43      1.0000 0.96175  0.47339  0.09147  Biso   1.000  C
  C44      1.0000 0.09147  0.47339  0.96175  Biso   1.000  C
  C45      1.0000 0.52661  0.52661  0.03825  Biso   1.000  C
  C46      1.0000 0.52661  0.52661  0.90853  Biso   1.000  C
  C47      1.0000 0.90853  0.03825  0.52661  Biso   1.000  C
  C48      1.0000 0.03825  0.90853  0.52661  Biso   1.000  C
  C49      1.0000 0.03825  0.52661  0.90853  Biso   1.000  C
  C50      1.0000 0.90853  0.52661  0.03825  Biso   1.000  C
  C51      1.0000 0.52661  0.03825  0.52661  Biso   1.000  C
  C52      1.0000 0.52661  0.90853  0.52661  Biso   1.000  C
  C53      1.0000 0.90853  0.52661  0.52661  Biso   1.000  C
  C54      1.0000 0.03825  0.52661  0.52661  Biso   1.000  C
  C55      1.0000 0.52661  0.03825  0.90853  Biso   1.000  C
  C56      1.0000 0.52661  0.90853  0.03825  Biso   1.000  C
  C57      1.0000 0.38840  0.38840  0.11160  Biso   1.000  C
  C58      1.0000 0.44637  0.44637  0.05363  Biso   1.000  C
  C59      1.0000 0.11160  0.11160  0.38840  Biso   1.000  C
  C60      1.0000 0.05363  0.05363  0.44637  Biso   1.000  C
  C61      1.0000 0.38840  0.11160  0.11160  Biso   1.000  C
  C62      1.0000 0.44637  0.05363  0.05363  Biso   1.000  C
  C63      1.0000 0.11160  0.38840  0.38840  Biso   1.000  C
  C64      1.0000 0.05363  0.44637  0.44637  Biso   1.000  C
  C65      1.0000 0.38840  0.11160  0.38840  Biso   1.000  C
  C66      1.0000 0.44637  0.05363  0.44637  Biso   1.000  C
  C67      1.0000 0.11160  0.38840  0.11160  Biso   1.000  C
  C68      1.0000 0.05363  0.44637  0.05363  Biso   1.000  C
  C69      1.0000 0.61160  0.61160  0.88840  Biso   1.000  C
  C70      1.0000 0.55363  0.55363  0.94637  Biso   1.000  C
  C71      1.0000 0.88840  0.88840  0.61160  Biso   1.000  C
  C72      1.0000 0.94637  0.94637  0.55363  Biso   1.000  C
  C73      1.0000 0.88840  0.61160  0.88840  Biso   1.000  C
  C74      1.0000 0.94637  0.55363  0.94637  Biso   1.000  C
  C75      1.0000 0.61160  0.88840  0.61160  Biso   1.000  C
  C76      1.0000 0.55363  0.94637  0.55363  Biso   1.000  C
  C77      1.0000 0.88840  0.61160  0.61160  Biso   1.000  C
  C78      1.0000 0.94637  0.55363  0.55363  Biso   1.000  C
  C79      1.0000 0.61160  0.88840  0.88840  Biso   1.000  C
  C80      1.0000 0.55363  0.94637  0.94637  Biso   1.000  C
  C81      1.0000 0.25000  0.25000  0.25000  Biso   1.000  C
  C82      1.0000 0.75000  0.75000  0.75000  Biso   1.000  C
  C83      1.0000 0.36613  0.36613  0.07281  Biso   1.000  C
  C84      1.0000 0.36613  0.36613  0.19493  Biso   1.000  C
  C85      1.0000 0.07281  0.19493  0.36613  Biso   1.000  C
  C86      1.0000 0.19493  0.07281  0.36613  Biso   1.000  C
  C87      1.0000 0.36613  0.07281  0.19493  Biso   1.000  C
  C88      1.0000 0.36613  0.19493  0.07281  Biso   1.000  C
  C89      1.0000 0.07281  0.36613  0.36613  Biso   1.000  C
  C90      1.0000 0.19493  0.36613  0.36613  Biso   1.000  C
  C91      1.0000 0.36613  0.19493  0.36613  Biso   1.000  C
  C92      1.0000 0.36613  0.07281  0.36613  Biso   1.000  C
  C93      1.0000 0.07281  0.36613  0.19493  Biso   1.000  C
  C94      1.0000 0.19493  0.36613  0.07281  Biso   1.000  C
  C95      1.0000 0.63387  0.63387  0.92719  Biso   1.000  C
  C96      1.0000 0.63387  0.63387  0.80507  Biso   1.000  C
  C97      1.0000 0.80507  0.92719  0.63387  Biso   1.000  C
  C98      1.0000 0.92719  0.80507  0.63387  Biso   1.000  C
  C99      1.0000 0.92719  0.63387  0.80507  Biso   1.000  C
  C100     1.0000 0.80507  0.63387  0.92719  Biso   1.000  C
  C101     1.0000 0.63387  0.92719  0.63387  Biso   1.000  C
  C102     1.0000 0.63387  0.80507  0.63387  Biso   1.000  C
  C103     1.0000 0.80507  0.63387  0.63387  Biso   1.000  C
  C104     1.0000 0.92719  0.63387  0.63387  Biso   1.000  C
  C105     1.0000 0.63387  0.92719  0.80507  Biso   1.000  C
  C106     1.0000 0.63387  0.80507  0.92719  Biso   1.000  C
  O1       1.0000 0.50202  0.51954  0.33469  Biso   1.000  O
  O2       1.0000 0.50202  0.51954  0.50846  Biso   1.000  O
  O3       1.0000 0.32825  0.51954  0.50846  Biso   1.000  O
  O4       1.0000 0.50202  0.34577  0.50846  Biso   1.000  O
  O5       1.0000 0.91487  0.93237  0.09506  Biso   1.000  O
  O6       1.0000 0.91487  0.93237  0.92129  Biso   1.000  O
  O7       1.0000 0.91487  0.10614  0.92129  Biso   1.000  O
  O8       1.0000 0.08864  0.93237  0.92129  Biso   1.000  O
  O9       1.0000 0.66347  0.68098  0.14983  Biso   1.000  O
  O10      1.0000 0.66347  0.68098  0.36987  Biso   1.000  O
  O11      1.0000 0.14340  0.38095  0.66990  Biso   1.000  O
  O12      1.0000 0.36344  0.16091  0.66990  Biso   1.000  O
  O13      1.0000 0.66347  0.16091  0.36987  Biso   1.000  O
  O14      1.0000 0.66347  0.38095  0.14983  Biso   1.000  O
  O15      1.0000 0.14340  0.68098  0.66990  Biso   1.000  O
  O16      1.0000 0.36344  0.68098  0.66990  Biso   1.000  O
  O17      1.0000 0.66347  0.38095  0.66990  Biso   1.000  O
  O18      1.0000 0.66347  0.16091  0.66990  Biso   1.000  O
  O19      1.0000 0.14340  0.68098  0.36987  Biso   1.000  O
  O20      1.0000 0.36344  0.68098  0.14983  Biso   1.000  O
  O21      1.0000 0.75342  0.77093  0.27992  Biso   1.000  O
  O22      1.0000 0.75342  0.77093  0.05988  Biso   1.000  O
  O23      1.0000 0.05345  0.29100  0.75985  Biso   1.000  O
  O24      1.0000 0.27349  0.07096  0.75985  Biso   1.000  O
  O25      1.0000 0.27349  0.77093  0.05988  Biso   1.000  O
  O26      1.0000 0.05345  0.77093  0.27992  Biso   1.000  O
  O27      1.0000 0.75342  0.29100  0.75985  Biso   1.000  O
  O28      1.0000 0.75342  0.07096  0.75985  Biso   1.000  O
  O29      1.0000 0.05345  0.77093  0.75985  Biso   1.000  O
  O30      1.0000 0.27349  0.77093  0.75985  Biso   1.000  O
  O31      1.0000 0.75342  0.29100  0.05988  Biso   1.000  O
  O32      1.0000 0.75342  0.07096  0.27992  Biso   1.000  O
  O33      1.0000 0.68168  0.69919  0.17673  Biso   1.000  O
  O34      1.0000 0.68168  0.69919  0.30655  Biso   1.000  O
  O35      1.0000 0.17030  0.31762  0.68811  Biso   1.000  O
  O36      1.0000 0.30012  0.18781  0.68811  Biso   1.000  O
  O37      1.0000 0.68168  0.18781  0.30655  Biso   1.000  O
  O38      1.0000 0.68168  0.31762  0.17673  Biso   1.000  O
  O39      1.0000 0.17030  0.69919  0.68811  Biso   1.000  O
  O40      1.0000 0.30012  0.69919  0.68811  Biso   1.000  O
  O41      1.0000 0.68168  0.31762  0.68811  Biso   1.000  O
  O42      1.0000 0.68168  0.18781  0.68811  Biso   1.000  O
  O43      1.0000 0.17030  0.69919  0.30655  Biso   1.000  O
  O44      1.0000 0.30012  0.69919  0.17673  Biso   1.000  O
  O45      1.0000 0.73521  0.75272  0.25302  Biso   1.000  O
  O46      1.0000 0.73521  0.75272  0.12321  Biso   1.000  O
  O47      1.0000 0.11677  0.26410  0.74164  Biso   1.000  O
  O48      1.0000 0.24659  0.13428  0.74164  Biso   1.000  O
  O49      1.0000 0.24659  0.75272  0.12321  Biso   1.000  O
  O50      1.0000 0.11677  0.75272  0.25302  Biso   1.000  O
  O51      1.0000 0.73521  0.26410  0.74164  Biso   1.000  O
  O52      1.0000 0.73521  0.13428  0.74164  Biso   1.000  O
  O53      1.0000 0.11677  0.75272  0.74164  Biso   1.000  O
  O54      1.0000 0.24659  0.75272  0.74164  Biso   1.000  O
  O55      1.0000 0.73521  0.26410  0.12321  Biso   1.000  O
  O56      1.0000 0.73521  0.13428  0.25302  Biso   1.000  O
  O57      1.0000 0.59691  0.61442  0.32670  Biso   1.000  O
  O58      1.0000 0.65487  0.67237  0.26874  Biso   1.000  O
  O59      1.0000 0.32027  0.33777  0.60334  Biso   1.000  O
  O60      1.0000 0.26231  0.27982  0.66130  Biso   1.000  O
  O61      1.0000 0.59691  0.33777  0.32670  Biso   1.000  O
  O62      1.0000 0.65487  0.27982  0.26874  Biso   1.000  O
  O63      1.0000 0.32027  0.61442  0.60334  Biso   1.000  O
  O64      1.0000 0.26231  0.67237  0.66130  Biso   1.000  O
  O65      1.0000 0.59691  0.33777  0.60334  Biso   1.000  O
  O66      1.0000 0.65487  0.27982  0.66130  Biso   1.000  O
  O67      1.0000 0.32027  0.61442  0.32670  Biso   1.000  O
  O68      1.0000 0.26231  0.67237  0.26874  Biso   1.000  O
  O69      1.0000 0.81998  0.83749  0.10306  Biso   1.000  O
  O70      1.0000 0.76202  0.77953  0.16101  Biso   1.000  O
  O71      1.0000 0.09662  0.11413  0.82641  Biso   1.000  O
  O72      1.0000 0.15458  0.17209  0.76846  Biso   1.000  O
  O73      1.0000 0.09662  0.83749  0.10306  Biso   1.000  O
  O74      1.0000 0.15458  0.77953  0.16101  Biso   1.000  O
  O75      1.0000 0.81998  0.11413  0.82641  Biso   1.000  O
  O76      1.0000 0.76202  0.17209  0.76846  Biso   1.000  O
  O77      1.0000 0.09662  0.83749  0.82641  Biso   1.000  O
  O78      1.0000 0.15458  0.77953  0.76846  Biso   1.000  O
  O79      1.0000 0.81998  0.11413  0.10306  Biso   1.000  O
  O80      1.0000 0.76202  0.17209  0.16101  Biso   1.000  O
  O81      1.0000 0.45859  0.47609  0.46502  Biso   1.000  O
  O82      1.0000 0.95830  0.97581  0.96474  Biso   1.000  O
  O83      1.0000 0.57464  0.59215  0.28810  Biso   1.000  O
  O84      1.0000 0.57464  0.59215  0.40983  Biso   1.000  O
  O85      1.0000 0.28167  0.42091  0.58107  Biso   1.000  O
  O86      1.0000 0.40340  0.29918  0.58107  Biso   1.000  O
  O87      1.0000 0.57464  0.29918  0.40983  Biso   1.000  O
  O88      1.0000 0.57464  0.42091  0.28810  Biso   1.000  O
  O89      1.0000 0.28167  0.59215  0.58107  Biso   1.000  O
  O90      1.0000 0.40340  0.59215  0.58107  Biso   1.000  O
  O91      1.0000 0.57464  0.42091  0.58107  Biso   1.000  O
  O92      1.0000 0.57464  0.29918  0.58107  Biso   1.000  O
  O93      1.0000 0.28167  0.59215  0.40983  Biso   1.000  O
  O94      1.0000 0.40340  0.59215  0.28810  Biso   1.000  O
  O95      1.0000 0.84225  0.85976  0.14165  Biso   1.000  O
  O96      1.0000 0.84225  0.85976  0.01992  Biso   1.000  O
  O97      1.0000 0.01349  0.15273  0.84868  Biso   1.000  O
  O98      1.0000 0.13522  0.03100  0.84868  Biso   1.000  O
  O99      1.0000 0.13522  0.85976  0.01992  Biso   1.000  O
  O100     1.0000 0.01349  0.85976  0.14165  Biso   1.000  O
  O101     1.0000 0.84225  0.15273  0.84868  Biso   1.000  O
  O102     1.0000 0.84225  0.03100  0.84868  Biso   1.000  O
  O103     1.0000 0.01349  0.85976  0.84868  Biso   1.000  O
  O104     1.0000 0.13522  0.85976  0.84868  Biso   1.000  O
  O105     1.0000 0.84225  0.15273  0.01992  Biso   1.000  O
