data_image0
_cell_length_a       18.2422
_cell_length_b       18.2422
_cell_length_c       18.2422
_cell_angle_alpha    60
_cell_angle_beta     60
_cell_angle_gamma    60

_symmetry_space_group_name_H-M    "P 1"
_symmetry_int_tables_number       1

loop_
  _symmetry_equiv_pos_as_xyz
  'x, y, z'

loop_
  _atom_site_label
  _atom_site_occupancy
  _atom_site_fract_x
  _atom_site_fract_y
  _atom_site_fract_z
  _atom_site_thermal_displace_type
  _atom_site_B_iso_or_equiv
  _atom_site_type_symbol
  C1       1.0000 0.29356  0.29355  0.11934  Biso   1.000  C
  C2       1.0000 0.29356  0.29355  0.29355  Biso   1.000  C
  C3       1.0000 0.11935  0.29355  0.29355  Biso   1.000  C
  C4       1.0000 0.29356  0.11934  0.29355  Biso   1.000  C
  C5       1.0000 0.70644  0.70645  0.88066  Biso   1.000  C
  C6       1.0000 0.70644  0.70645  0.70645  Biso   1.000  C
  C7       1.0000 0.70644  0.88066  0.70645  Biso   1.000  C
  C8       1.0000 0.88065  0.70645  0.70645  Biso   1.000  C
  C9       1.0000 0.45610  0.45610  0.93590  Biso   1.000  C
  C10      1.0000 0.45610  0.45610  0.15190  Biso   1.000  C
  C11      1.0000 0.93590  0.15190  0.45610  Biso   1.000  C
  C12      1.0000 0.15190  0.93590  0.45610  Biso   1.000  C
  C13      1.0000 0.45610  0.93590  0.15190  Biso   1.000  C
  C14      1.0000 0.45610  0.15190  0.93590  Biso   1.000  C
  C15      1.0000 0.93590  0.45610  0.45610  Biso   1.000  C
  C16      1.0000 0.15190  0.45610  0.45610  Biso   1.000  C
  C17      1.0000 0.45610  0.15190  0.45610  Biso   1.000  C
  C18      1.0000 0.45610  0.93590  0.45610  Biso   1.000  C
  C19      1.0000 0.93590  0.45610  0.15190  Biso   1.000  C
  C20      1.0000 0.15190  0.45610  0.93590  Biso   1.000  C
  C21      1.0000 0.54390  0.54390  0.06410  Biso   1.000  C
  C22      1.0000 0.54390  0.54390  0.84810  Biso   1.000  C
  C23      1.0000 0.84810  0.06410  0.54390  Biso   1.000  C
  C24      1.0000 0.06410  0.84810  0.54390  Biso   1.000  C
  C25      1.0000 0.06410  0.54390  0.84810  Biso   1.000  C
  C26      1.0000 0.84810  0.54390  0.06410  Biso   1.000  C
  C27      1.0000 0.54390  0.06410  0.54390  Biso   1.000  C
  C28      1.0000 0.54390  0.84810  0.54390  Biso   1.000  C
  C29      1.0000 0.84810  0.54390  0.54390  Biso   1.000  C
  C30      1.0000 0.06410  0.54390  0.54390  Biso   1.000  C
  C31      1.0000 0.54390  0.06410  0.84810  Biso   1.000  C
  C32      1.0000 0.54390  0.84810  0.06410  Biso   1.000  C
  C33      1.0000 0.47369  0.47369  0.96285  Biso   1.000  C
  C34      1.0000 0.47369  0.47369  0.08977  Biso   1.000  C
  C35      1.0000 0.96285  0.08977  0.47369  Biso   1.000  C
  C36      1.0000 0.08977  0.96285  0.47369  Biso   1.000  C
  C37      1.0000 0.47369  0.96285  0.08977  Biso   1.000  C
  C38      1.0000 0.47369  0.08977  0.96285  Biso   1.000  C
  C39      1.0000 0.96285  0.47369  0.47369  Biso   1.000  C
  C40      1.0000 0.08977  0.47369  0.47369  Biso   1.000  C
  C41      1.0000 0.47369  0.08977  0.47369  Biso   1.000  C
  C42      1.0000 0.47369  0.96285  0.47369  Biso   1.000  C
  C43      1.0000 0.96285  0.47369  0.08977  Biso   1.000  C
  C44      1.0000 0.08977  0.47369  0.96285  Biso   1.000  C
  C45      1.0000 0.52631  0.52631  0.03715  Biso   1.000  C
  C46      1.0000 0.52631  0.52631  0.91023  Biso   1.000  C
  C47      1.0000 0.91023  0.03715  0.52631  Biso   1.000  C
  C48      1.0000 0.03715  0.91023  0.52631  Biso   1.000  C
  C49      1.0000 0.03715  0.52631  0.91023  Biso   1.000  C
  C50      1.0000 0.91023  0.52631  0.03715  Biso   1.000  C
  C51      1.0000 0.52631  0.03715  0.52631  Biso   1.000  C
  C52      1.0000 0.52631  0.91023  0.52631  Biso   1.000  C
  C53      1.0000 0.91023  0.52631  0.52631  Biso   1.000  C
  C54      1.0000 0.03715  0.52631  0.52631  Biso   1.000  C
  C55      1.0000 0.52631  0.03715  0.91023  Biso   1.000  C
  C56      1.0000 0.52631  0.91023  0.03715  Biso   1.000  C
  C57      1.0000 0.38870  0.38870  0.11130  Biso   1.000  C
  C58      1.0000 0.44610  0.44610  0.05390  Biso   1.000  C
  C59      1.0000 0.11130  0.11130  0.38870  Biso   1.000  C
  C60      1.0000 0.05390  0.05390  0.44610  Biso   1.000  C
  C61      1.0000 0.38870  0.11130  0.11130  Biso   1.000  C
  C62      1.0000 0.44610  0.05390  0.05390  Biso   1.000  C
  C63      1.0000 0.11130  0.38870  0.38870  Biso   1.000  C
  C64      1.0000 0.05390  0.44610  0.44610  Biso   1.000  C
  C65      1.0000 0.38870  0.11130  0.38870  Biso   1.000  C
  C66      1.0000 0.44610  0.05390  0.44610  Biso   1.000  C
  C67      1.0000 0.11130  0.38870  0.11130  Biso   1.000  C
  C68      1.0000 0.05390  0.44610  0.05390  Biso   1.000  C
  C69      1.0000 0.61130  0.61130  0.88870  Biso   1.000  C
  C70      1.0000 0.55390  0.55390  0.94610  Biso   1.000  C
  C71      1.0000 0.88870  0.88870  0.61130  Biso   1.000  C
  C72      1.0000 0.94610  0.94610  0.55390  Biso   1.000  C
  C73      1.0000 0.88870  0.61130  0.88870  Biso   1.000  C
  C74      1.0000 0.94610  0.55390  0.94610  Biso   1.000  C
  C75      1.0000 0.61130  0.88870  0.61130  Biso   1.000  C
  C76      1.0000 0.55390  0.94610  0.55390  Biso   1.000  C
  C77      1.0000 0.88870  0.61130  0.61130  Biso   1.000  C
  C78      1.0000 0.94610  0.55390  0.55390  Biso   1.000  C
  C79      1.0000 0.61130  0.88870  0.88870  Biso   1.000  C
  C80      1.0000 0.55390  0.94610  0.94610  Biso   1.000  C
  C81      1.0000 0.25000  0.25000  0.25000  Biso   1.000  C
  C82      1.0000 0.75000  0.75000  0.75000  Biso   1.000  C
  C83      1.0000 0.36609  0.36609  0.07323  Biso   1.000  C
  C84      1.0000 0.36609  0.36609  0.19459  Biso   1.000  C
  C85      1.0000 0.07323  0.19459  0.36609  Biso   1.000  C
  C86      1.0000 0.19459  0.07323  0.36609  Biso   1.000  C
  C87      1.0000 0.36609  0.07323  0.19459  Biso   1.000  C
  C88      1.0000 0.36609  0.19459  0.07323  Biso   1.000  C
  C89      1.0000 0.07323  0.36609  0.36609  Biso   1.000  C
  C90      1.0000 0.19459  0.36609  0.36609  Biso   1.000  C
  C91      1.0000 0.36609  0.19459  0.36609  Biso   1.000  C
  C92      1.0000 0.36609  0.07323  0.36609  Biso   1.000  C
  C93      1.0000 0.07323  0.36609  0.19459  Biso   1.000  C
  C94      1.0000 0.19459  0.36609  0.07323  Biso   1.000  C
  C95      1.0000 0.63391  0.63391  0.92677  Biso   1.000  C
  C96      1.0000 0.63391  0.63391  0.80541  Biso   1.000  C
  C97      1.0000 0.80541  0.92677  0.63391  Biso   1.000  C
  C98      1.0000 0.92677  0.80541  0.63391  Biso   1.000  C
  C99      1.0000 0.92677  0.63391  0.80541  Biso   1.000  C
  C100     1.0000 0.80541  0.63391  0.92677  Biso   1.000  C
  C101     1.0000 0.63391  0.92677  0.63391  Biso   1.000  C
  C102     1.0000 0.63391  0.80541  0.63391  Biso   1.000  C
  C103     1.0000 0.80541  0.63391  0.63391  Biso   1.000  C
  C104     1.0000 0.92677  0.63391  0.63391  Biso   1.000  C
  C105     1.0000 0.63391  0.92677  0.80541  Biso   1.000  C
  C106     1.0000 0.63391  0.80541  0.92677  Biso   1.000  C
  O1       1.0000 0.99471  0.97503  0.87279  Biso   1.000  O
  O2       1.0000 0.99476  0.14745  0.87274  Biso   1.000  O
  O3       1.0000 0.16718  0.97503  0.87279  Biso   1.000  O
  O4       1.0000 0.99476  0.97499  0.04521  Biso   1.000  O
  O5       1.0000 0.57847  0.56374  0.46151  Biso   1.000  O
  O6       1.0000 0.57843  0.39132  0.46156  Biso   1.000  O
  O7       1.0000 0.40601  0.56374  0.46151  Biso   1.000  O
  O8       1.0000 0.57843  0.56379  0.28909  Biso   1.000  O
  O9       1.0000 0.81519  0.17492  0.69422  Biso   1.000  O
  O10      1.0000 0.19486  0.79625  0.69222  Biso   1.000  O
  O11      1.0000 0.81459  0.79725  0.07269  Biso   1.000  O
  O12      1.0000 0.81621  0.31071  0.69323  Biso   1.000  O
  O13      1.0000 0.81420  0.31171  0.07289  Biso   1.000  O
  O14      1.0000 0.19467  0.31052  0.69262  Biso   1.000  O
  O15      1.0000 0.32539  0.79646  0.07268  Biso   1.000  O
  O16      1.0000 0.32639  0.79446  0.69401  Biso   1.000  O
  O17      1.0000 0.32519  0.17493  0.69501  Biso   1.000  O
  O18      1.0000 0.18959  0.79546  0.20847  Biso   1.000  O
  O19      1.0000 0.81092  0.17512  0.20948  Biso   1.000  O
  O20      1.0000 0.81192  0.79485  0.20829  Biso   1.000  O
  O21      1.0000 0.75800  0.36385  0.64008  Biso   1.000  O
  O22      1.0000 0.37833  0.74252  0.64208  Biso   1.000  O
  O23      1.0000 0.75860  0.74152  0.26161  Biso   1.000  O
  O24      1.0000 0.75698  0.22807  0.64107  Biso   1.000  O
  O25      1.0000 0.75898  0.22706  0.26141  Biso   1.000  O
  O26      1.0000 0.37852  0.22826  0.64168  Biso   1.000  O
  O27      1.0000 0.24780  0.74231  0.26162  Biso   1.000  O
  O28      1.0000 0.24680  0.74431  0.64029  Biso   1.000  O
  O29      1.0000 0.24800  0.36384  0.63929  Biso   1.000  O
  O30      1.0000 0.38360  0.74331  0.12583  Biso   1.000  O
  O31      1.0000 0.76227  0.36365  0.12482  Biso   1.000  O
  O32      1.0000 0.76126  0.74392  0.12602  Biso   1.000  O
  O33      1.0000 0.84264  0.21333  0.72068  Biso   1.000  O
  O34      1.0000 0.90103  0.15495  0.77906  Biso   1.000  O
  O35      1.0000 0.23306  0.82292  0.11109  Biso   1.000  O
  O36      1.0000 0.17468  0.88130  0.05271  Biso   1.000  O
  O37      1.0000 0.73055  0.32544  0.61362  Biso   1.000  O
  O38      1.0000 0.67216  0.38382  0.55524  Biso   1.000  O
  O39      1.0000 0.34012  0.71585  0.22321  Biso   1.000  O
  O40      1.0000 0.39851  0.65747  0.28159  Biso   1.000  O
  O41      1.0000 0.84245  0.82272  0.11129  Biso   1.000  O
  O42      1.0000 0.90055  0.88082  0.05319  Biso   1.000  O
  O43      1.0000 0.23326  0.21353  0.72048  Biso   1.000  O
  O44      1.0000 0.17515  0.15543  0.77858  Biso   1.000  O
  O45      1.0000 0.73074  0.71605  0.22301  Biso   1.000  O
  O46      1.0000 0.67263  0.65795  0.28111  Biso   1.000  O
  O47      1.0000 0.33993  0.32524  0.61382  Biso   1.000  O
  O48      1.0000 0.39804  0.38335  0.55572  Biso   1.000  O
  O49      1.0000 0.23346  0.82252  0.72028  Biso   1.000  O
  O50      1.0000 0.17536  0.88062  0.77838  Biso   1.000  O
  O51      1.0000 0.84224  0.21374  0.11149  Biso   1.000  O
  O52      1.0000 0.90035  0.15563  0.05339  Biso   1.000  O
  O53      1.0000 0.33973  0.71626  0.61402  Biso   1.000  O
  O54      1.0000 0.39783  0.65815  0.55592  Biso   1.000  O
  O55      1.0000 0.73094  0.32504  0.22281  Biso   1.000  O
  O56      1.0000 0.67284  0.38314  0.28092  Biso   1.000  O
  O57      1.0000 0.92351  0.07114  0.79995  Biso   1.000  O
  O58      1.0000 0.92159  0.90379  0.96973  Biso   1.000  O
  O59      1.0000 0.09045  0.90343  0.80037  Biso   1.000  O
  O60      1.0000 0.92192  0.19539  0.80155  Biso   1.000  O
  O61      1.0000 0.09170  0.19489  0.79962  Biso   1.000  O
  O62      1.0000 0.92234  0.19575  0.96848  Biso   1.000  O
  O63      1.0000 0.21511  0.90220  0.96890  Biso   1.000  O
  O64      1.0000 0.21461  0.07197  0.80155  Biso   1.000  O
  O65      1.0000 0.21547  0.90261  0.80119  Biso   1.000  O
  O66      1.0000 0.09087  0.90379  0.09314  Biso   1.000  O
  O67      1.0000 0.92352  0.90186  0.09265  Biso   1.000  O
  O68      1.0000 0.92316  0.07072  0.09350  Biso   1.000  O
  O69      1.0000 0.64967  0.46764  0.53435  Biso   1.000  O
  O70      1.0000 0.65160  0.63499  0.36457  Biso   1.000  O
  O71      1.0000 0.48274  0.63535  0.53393  Biso   1.000  O
  O72      1.0000 0.65127  0.34339  0.53275  Biso   1.000  O
  O73      1.0000 0.48149  0.34389  0.53468  Biso   1.000  O
  O74      1.0000 0.65085  0.34303  0.36582  Biso   1.000  O
  O75      1.0000 0.35807  0.63658  0.36541  Biso   1.000  O
  O76      1.0000 0.35857  0.46680  0.53275  Biso   1.000  O
  O77      1.0000 0.35772  0.63616  0.53311  Biso   1.000  O
  O78      1.0000 0.48232  0.63499  0.24116  Biso   1.000  O
  O79      1.0000 0.64967  0.63692  0.24166  Biso   1.000  O
  O80      1.0000 0.65003  0.46805  0.24080  Biso   1.000  O
  O81      1.0000 0.03785  0.01813  0.91588  Biso   1.000  O
  O82      1.0000 0.53533  0.52065  0.41842  Biso   1.000  O
  O83      1.0000 0.11865  0.81909  0.71358  Biso   1.000  O
  O84      1.0000 0.35841  0.81582  0.71685  Biso   1.000  O
  O85      1.0000 0.45454  0.71969  0.62072  Biso   1.000  O
  O86      1.0000 0.21478  0.72295  0.61745  Biso   1.000  O
  O87      1.0000 0.35721  0.09873  0.71809  Biso   1.000  O
  O88      1.0000 0.45472  0.19624  0.62058  Biso   1.000  O
  O89      1.0000 0.83570  0.82033  0.99648  Biso   1.000  O
  O90      1.0000 0.73818  0.72282  0.09400  Biso   1.000  O
  O91      1.0000 0.83871  0.34273  0.71491  Biso   1.000  O
  O92      1.0000 0.83557  0.34373  0.99667  Biso   1.000  O
  O93      1.0000 0.45981  0.72163  0.09380  Biso   1.000  O
  O94      1.0000 0.73943  0.43986  0.09280  Biso   1.000  O
  O95      1.0000 0.11847  0.34253  0.71372  Biso   1.000  O
  O96      1.0000 0.21598  0.44005  0.61621  Biso   1.000  O
  O97      1.0000 0.83501  0.81596  0.24030  Biso   1.000  O
  O98      1.0000 0.73749  0.71844  0.33782  Biso   1.000  O
  O99      1.0000 0.21578  0.71981  0.33784  Biso   1.000  O
  O100     1.0000 0.83376  0.09891  0.24150  Biso   1.000  O
  O101     1.0000 0.73762  0.19504  0.33763  Biso   1.000  O
  O102     1.0000 0.11338  0.81714  0.24050  Biso   1.000  O
  O103     1.0000 0.73448  0.19604  0.61939  Biso   1.000  O
  O104     1.0000 0.83687  0.09871  0.71673  Biso   1.000  O
  O105     1.0000 0.73631  0.44007  0.61757  Biso   1.000  O
