data_image0
_cell_length_a       18.2704
_cell_length_b       18.2704
_cell_length_c       18.2704
_cell_angle_alpha    60
_cell_angle_beta     60
_cell_angle_gamma    60

_symmetry_space_group_name_H-M    "P 1"
_symmetry_int_tables_number       1

loop_
  _symmetry_equiv_pos_as_xyz
  'x, y, z'

loop_
  _atom_site_label
  _atom_site_occupancy
  _atom_site_fract_x
  _atom_site_fract_y
  _atom_site_fract_z
  _atom_site_thermal_displace_type
  _atom_site_B_iso_or_equiv
  _atom_site_type_symbol
  Zn1      1.0000 0.29350  0.29349  0.11952  Biso   1.000  Zn
  Zn2      1.0000 0.29350  0.29349  0.29349  Biso   1.000  Zn
  Zn3      1.0000 0.11953  0.29349  0.29349  Biso   1.000  Zn
  Zn4      1.0000 0.29350  0.11952  0.29349  Biso   1.000  Zn
  Zn5      1.0000 0.70650  0.70651  0.88048  Biso   1.000  Zn
  Zn6      1.0000 0.70650  0.70651  0.70651  Biso   1.000  Zn
  Zn7      1.0000 0.70650  0.88048  0.70651  Biso   1.000  Zn
  Zn8      1.0000 0.88047  0.70651  0.70651  Biso   1.000  Zn
  H1       1.0000 0.45540  0.45540  0.93560  Biso   1.000  H
  H2       1.0000 0.45540  0.45540  0.15360  Biso   1.000  H
  H3       1.0000 0.93560  0.15360  0.45540  Biso   1.000  H
  H4       1.0000 0.15360  0.93560  0.45540  Biso   1.000  H
  H5       1.0000 0.45540  0.93560  0.15360  Biso   1.000  H
  H6       1.0000 0.45540  0.15360  0.93560  Biso   1.000  H
  H7       1.0000 0.93560  0.45540  0.45540  Biso   1.000  H
  H8       1.0000 0.15360  0.45540  0.45540  Biso   1.000  H
  H9       1.0000 0.45540  0.15360  0.45540  Biso   1.000  H
  H10      1.0000 0.45540  0.93560  0.45540  Biso   1.000  H
  H11      1.0000 0.93560  0.45540  0.15360  Biso   1.000  H
  H12      1.0000 0.15360  0.45540  0.93560  Biso   1.000  H
  H13      1.0000 0.54460  0.54460  0.06440  Biso   1.000  H
  H14      1.0000 0.54460  0.54460  0.84640  Biso   1.000  H
  H15      1.0000 0.84640  0.06440  0.54460  Biso   1.000  H
  H16      1.0000 0.06440  0.84640  0.54460  Biso   1.000  H
  H17      1.0000 0.06440  0.54460  0.84640  Biso   1.000  H
  H18      1.0000 0.84640  0.54460  0.06440  Biso   1.000  H
  H19      1.0000 0.54460  0.06440  0.54460  Biso   1.000  H
  H20      1.0000 0.54460  0.84640  0.54460  Biso   1.000  H
  H21      1.0000 0.84640  0.54460  0.54460  Biso   1.000  H
  H22      1.0000 0.06440  0.54460  0.54460  Biso   1.000  H
  H23      1.0000 0.54460  0.06440  0.84640  Biso   1.000  H
  H24      1.0000 0.54460  0.84640  0.06440  Biso   1.000  H
  C1       1.0000 0.47338  0.47338  0.96238  Biso   1.000  C
  C2       1.0000 0.47338  0.47338  0.09086  Biso   1.000  C
  C3       1.0000 0.96238  0.09086  0.47338  Biso   1.000  C
  C4       1.0000 0.09086  0.96238  0.47338  Biso   1.000  C
  C5       1.0000 0.47338  0.96238  0.09086  Biso   1.000  C
  C6       1.0000 0.47338  0.09086  0.96238  Biso   1.000  C
  C7       1.0000 0.96238  0.47338  0.47338  Biso   1.000  C
  C8       1.0000 0.09086  0.47338  0.47338  Biso   1.000  C
  C9       1.0000 0.47338  0.09086  0.47338  Biso   1.000  C
  C10      1.0000 0.47338  0.96238  0.47338  Biso   1.000  C
  C11      1.0000 0.96238  0.47338  0.09086  Biso   1.000  C
  C12      1.0000 0.09086  0.47338  0.96238  Biso   1.000  C
  C13      1.0000 0.52662  0.52662  0.03762  Biso   1.000  C
  C14      1.0000 0.52662  0.52662  0.90914  Biso   1.000  C
  C15      1.0000 0.90914  0.03762  0.52662  Biso   1.000  C
  C16      1.0000 0.03762  0.90914  0.52662  Biso   1.000  C
  C17      1.0000 0.03762  0.52662  0.90914  Biso   1.000  C
  C18      1.0000 0.90914  0.52662  0.03762  Biso   1.000  C
  C19      1.0000 0.52662  0.03762  0.52662  Biso   1.000  C
  C20      1.0000 0.52662  0.90914  0.52662  Biso   1.000  C
  C21      1.0000 0.90914  0.52662  0.52662  Biso   1.000  C
  C22      1.0000 0.03762  0.52662  0.52662  Biso   1.000  C
  C23      1.0000 0.52662  0.03762  0.90914  Biso   1.000  C
  C24      1.0000 0.52662  0.90914  0.03762  Biso   1.000  C
  C25      1.0000 0.38861  0.38861  0.11139  Biso   1.000  C
  C26      1.0000 0.44619  0.44619  0.05381  Biso   1.000  C
  C27      1.0000 0.11139  0.11139  0.38861  Biso   1.000  C
  C28      1.0000 0.05381  0.05381  0.44619  Biso   1.000  C
  C29      1.0000 0.38861  0.11139  0.11139  Biso   1.000  C
  C30      1.0000 0.44619  0.05381  0.05381  Biso   1.000  C
  C31      1.0000 0.11139  0.38861  0.38861  Biso   1.000  C
  C32      1.0000 0.05381  0.44619  0.44619  Biso   1.000  C
  C33      1.0000 0.38861  0.11139  0.38861  Biso   1.000  C
  C34      1.0000 0.44619  0.05381  0.44619  Biso   1.000  C
  C35      1.0000 0.11139  0.38861  0.11139  Biso   1.000  C
  C36      1.0000 0.05381  0.44619  0.05381  Biso   1.000  C
  C37      1.0000 0.61139  0.61139  0.88861  Biso   1.000  C
  C38      1.0000 0.55381  0.55381  0.94619  Biso   1.000  C
  C39      1.0000 0.88861  0.88861  0.61139  Biso   1.000  C
  C40      1.0000 0.94619  0.94619  0.55381  Biso   1.000  C
  C41      1.0000 0.88861  0.61139  0.88861  Biso   1.000  C
  C42      1.0000 0.94619  0.55381  0.94619  Biso   1.000  C
  C43      1.0000 0.61139  0.88861  0.61139  Biso   1.000  C
  C44      1.0000 0.55381  0.94619  0.55381  Biso   1.000  C
  C45      1.0000 0.88861  0.61139  0.61139  Biso   1.000  C
  C46      1.0000 0.94619  0.55381  0.55381  Biso   1.000  C
  C47      1.0000 0.61139  0.88861  0.88861  Biso   1.000  C
  C48      1.0000 0.55381  0.94619  0.94619  Biso   1.000  C
  O1       1.0000 0.25000  0.25000  0.25000  Biso   1.000  O
  O2       1.0000 0.75000  0.75000  0.75000  Biso   1.000  O
  O3       1.0000 0.36607  0.36607  0.07299  Biso   1.000  O
  O4       1.0000 0.36607  0.36607  0.19487  Biso   1.000  O
  O5       1.0000 0.07299  0.19487  0.36607  Biso   1.000  O
  O6       1.0000 0.19487  0.07299  0.36607  Biso   1.000  O
  O7       1.0000 0.36607  0.07299  0.19487  Biso   1.000  O
  O8       1.0000 0.36607  0.19487  0.07299  Biso   1.000  O
  O9       1.0000 0.07299  0.36607  0.36607  Biso   1.000  O
  O10      1.0000 0.19487  0.36607  0.36607  Biso   1.000  O
  O11      1.0000 0.36607  0.19487  0.36607  Biso   1.000  O
  O12      1.0000 0.36607  0.07299  0.36607  Biso   1.000  O
  O13      1.0000 0.07299  0.36607  0.19487  Biso   1.000  O
  O14      1.0000 0.19487  0.36607  0.07299  Biso   1.000  O
  O15      1.0000 0.63393  0.63393  0.92701  Biso   1.000  O
  O16      1.0000 0.63393  0.63393  0.80513  Biso   1.000  O
  O17      1.0000 0.80513  0.92701  0.63393  Biso   1.000  O
  O18      1.0000 0.92701  0.80513  0.63393  Biso   1.000  O
  O19      1.0000 0.92701  0.63393  0.80513  Biso   1.000  O
  O20      1.0000 0.80513  0.63393  0.92701  Biso   1.000  O
  O21      1.0000 0.63393  0.92701  0.63393  Biso   1.000  O
  O22      1.0000 0.63393  0.80513  0.63393  Biso   1.000  O
  O23      1.0000 0.80513  0.63393  0.63393  Biso   1.000  O
  O24      1.0000 0.92701  0.63393  0.63393  Biso   1.000  O
  O25      1.0000 0.63393  0.92701  0.80513  Biso   1.000  O
  O26      1.0000 0.63393  0.80513  0.92701  Biso   1.000  O
  Zn9      1.0000 0.68545  0.34919  0.46924  Biso   1.000  Zn
  Zn10     1.0000 0.50560  0.34919  0.64909  Biso   1.000  Zn
  Zn11     1.0000 0.50560  0.52905  0.46924  Biso   1.000  Zn
  Zn12     1.0000 0.50560  0.34919  0.46924  Biso   1.000  Zn
  Zn13     1.0000 0.08761  0.93911  0.88725  Biso   1.000  Zn
  Zn14     1.0000 0.91570  0.93911  0.05916  Biso   1.000  Zn
  Zn15     1.0000 0.08761  0.93911  0.05916  Biso   1.000  Zn
  Zn16     1.0000 0.08761  0.76720  0.05916  Biso   1.000  Zn
  H25      1.0000 0.94453  0.10219  0.70417  Biso   1.000  H
  H26      1.0000 0.73262  0.10219  0.91608  Biso   1.000  H
  H27      1.0000 0.25069  0.79603  0.22224  Biso   1.000  H
  H28      1.0000 0.25069  0.58412  0.22224  Biso   1.000  H
  H29      1.0000 0.25069  0.58412  0.91608  Biso   1.000  H
  H30      1.0000 0.25069  0.79603  0.70417  Biso   1.000  H
  H31      1.0000 0.94453  0.10219  0.22224  Biso   1.000  H
  H32      1.0000 0.73262  0.10219  0.22224  Biso   1.000  H
  H33      1.0000 0.73262  0.79603  0.22224  Biso   1.000  H
  H34      1.0000 0.94453  0.58412  0.22224  Biso   1.000  H
  H35      1.0000 0.25069  0.10219  0.91608  Biso   1.000  H
  H36      1.0000 0.25069  0.10219  0.70417  Biso   1.000  H
  C49      1.0000 0.83471  0.16896  0.68045  Biso   1.000  C
  C50      1.0000 0.88272  0.11876  0.73284  Biso   1.000  C
  C51      1.0000 0.70891  0.16896  0.80625  Biso   1.000  C
  C52      1.0000 0.76129  0.11876  0.85427  Biso   1.000  C
  C53      1.0000 0.31746  0.68620  0.28901  Biso   1.000  C
  C54      1.0000 0.26726  0.73422  0.23881  Biso   1.000  C
  C55      1.0000 0.31746  0.56041  0.28901  Biso   1.000  C
  C56      1.0000 0.26726  0.61279  0.23881  Biso   1.000  C
  C57      1.0000 0.31746  0.56041  0.80625  Biso   1.000  C
  C58      1.0000 0.26726  0.61279  0.85427  Biso   1.000  C
  C59      1.0000 0.31746  0.68620  0.68045  Biso   1.000  C
  C60      1.0000 0.26726  0.73422  0.73284  Biso   1.000  C
  C61      1.0000 0.83471  0.16896  0.28901  Biso   1.000  C
  C62      1.0000 0.88272  0.11876  0.23881  Biso   1.000  C
  C63      1.0000 0.70891  0.16896  0.28901  Biso   1.000  C
  C64      1.0000 0.76129  0.11876  0.23881  Biso   1.000  C
  C65      1.0000 0.70891  0.68620  0.28901  Biso   1.000  C
  C66      1.0000 0.76129  0.73422  0.23881  Biso   1.000  C
  C67      1.0000 0.83471  0.56041  0.28901  Biso   1.000  C
  C68      1.0000 0.88272  0.61279  0.23881  Biso   1.000  C
  C69      1.0000 0.31746  0.16896  0.80625  Biso   1.000  C
  C70      1.0000 0.26726  0.11876  0.85427  Biso   1.000  C
  C71      1.0000 0.31746  0.16896  0.68045  Biso   1.000  C
  C72      1.0000 0.26726  0.11876  0.73284  Biso   1.000  C
  C73      1.0000 0.68401  0.25676  0.65555  Biso   1.000  C
  C74      1.0000 0.74750  0.19326  0.71905  Biso   1.000  C
  C75      1.0000 0.90415  0.03661  0.87570  Biso   1.000  C
  C76      1.0000 0.85405  0.08671  0.82560  Biso   1.000  C
  C77      1.0000 0.40526  0.53550  0.37681  Biso   1.000  C
  C78      1.0000 0.34177  0.59900  0.31331  Biso   1.000  C
  C79      1.0000 0.18511  0.75565  0.15666  Biso   1.000  C
  C80      1.0000 0.23521  0.70555  0.20676  Biso   1.000  C
  C81      1.0000 0.40526  0.53550  0.65555  Biso   1.000  C
  C82      1.0000 0.34177  0.59900  0.71905  Biso   1.000  C
  C83      1.0000 0.18511  0.75565  0.87570  Biso   1.000  C
  C84      1.0000 0.23521  0.70555  0.82560  Biso   1.000  C
  C85      1.0000 0.68401  0.25676  0.37681  Biso   1.000  C
  C86      1.0000 0.74750  0.19326  0.31331  Biso   1.000  C
  C87      1.0000 0.90415  0.03661  0.15666  Biso   1.000  C
  C88      1.0000 0.85405  0.08671  0.20676  Biso   1.000  C
  C89      1.0000 0.68401  0.53550  0.37681  Biso   1.000  C
  C90      1.0000 0.74750  0.59900  0.31331  Biso   1.000  C
  C91      1.0000 0.90415  0.75565  0.15666  Biso   1.000  C
  C92      1.0000 0.85405  0.70555  0.20676  Biso   1.000  C
  C93      1.0000 0.40526  0.25676  0.65555  Biso   1.000  C
  C94      1.0000 0.34177  0.19326  0.71905  Biso   1.000  C
  C95      1.0000 0.18511  0.03661  0.87570  Biso   1.000  C
  C96      1.0000 0.23521  0.08671  0.82560  Biso   1.000  C
  O27      1.0000 0.04463  0.89613  0.01618  Biso   1.000  O
  O28      1.0000 0.55649  0.39218  0.51223  Biso   1.000  O
  O29      1.0000 0.72250  0.27858  0.57341  Biso   1.000  O
  O30      1.0000 0.98878  0.01191  0.84048  Biso   1.000  O
  O31      1.0000 0.60186  0.27858  0.69405  Biso   1.000  O
  O32      1.0000 0.86893  0.01191  0.96032  Biso   1.000  O
  O33      1.0000 0.42709  0.57400  0.39863  Biso   1.000  O
  O34      1.0000 0.16041  0.84028  0.13196  Biso   1.000  O
  O35      1.0000 0.42709  0.45336  0.39863  Biso   1.000  O
  O36      1.0000 0.16041  0.72043  0.13196  Biso   1.000  O
  O37      1.0000 0.42709  0.45336  0.69405  Biso   1.000  O
  O38      1.0000 0.16041  0.72043  0.96032  Biso   1.000  O
  O39      1.0000 0.42709  0.57400  0.57341  Biso   1.000  O
  O40      1.0000 0.16041  0.84028  0.84048  Biso   1.000  O
  O41      1.0000 0.72250  0.27858  0.39863  Biso   1.000  O
  O42      1.0000 0.98878  0.01191  0.13196  Biso   1.000  O
  O43      1.0000 0.60186  0.27858  0.39863  Biso   1.000  O
  O44      1.0000 0.86893  0.01191  0.13196  Biso   1.000  O
  O45      1.0000 0.60186  0.57400  0.39863  Biso   1.000  O
  O46      1.0000 0.86893  0.84028  0.13196  Biso   1.000  O
  O47      1.0000 0.72250  0.45336  0.39863  Biso   1.000  O
  O48      1.0000 0.98878  0.72043  0.13196  Biso   1.000  O
  O49      1.0000 0.42709  0.27858  0.69405  Biso   1.000  O
  O50      1.0000 0.16041  0.01191  0.96032  Biso   1.000  O
  O51      1.0000 0.42709  0.27858  0.57341  Biso   1.000  O
