data_image0
_cell_length_a       18.2751
_cell_length_b       18.2751
_cell_length_c       18.2751
_cell_angle_alpha    60
_cell_angle_beta     60
_cell_angle_gamma    60

_symmetry_space_group_name_H-M    "P 1"
_symmetry_int_tables_number       1

loop_
  _symmetry_equiv_pos_as_xyz
  'x, y, z'

loop_
  _atom_site_label
  _atom_site_occupancy
  _atom_site_fract_x
  _atom_site_fract_y
  _atom_site_fract_z
  _atom_site_thermal_displace_type
  _atom_site_B_iso_or_equiv
  _atom_site_type_symbol
  C1       1.0000 0.29350  0.29349  0.11952  Biso   1.000  C
  C2       1.0000 0.29350  0.29349  0.29349  Biso   1.000  C
  C3       1.0000 0.11953  0.29349  0.29349  Biso   1.000  C
  C4       1.0000 0.29350  0.11952  0.29349  Biso   1.000  C
  C5       1.0000 0.70650  0.70651  0.88048  Biso   1.000  C
  C6       1.0000 0.70650  0.70651  0.70651  Biso   1.000  C
  C7       1.0000 0.70650  0.88048  0.70651  Biso   1.000  C
  C8       1.0000 0.88047  0.70651  0.70651  Biso   1.000  C
  C9       1.0000 0.45530  0.45530  0.93570  Biso   1.000  C
  C10      1.0000 0.45530  0.45530  0.15370  Biso   1.000  C
  C11      1.0000 0.93570  0.15370  0.45530  Biso   1.000  C
  C12      1.0000 0.15370  0.93570  0.45530  Biso   1.000  C
  C13      1.0000 0.45530  0.93570  0.15370  Biso   1.000  C
  C14      1.0000 0.45530  0.15370  0.93570  Biso   1.000  C
  C15      1.0000 0.93570  0.45530  0.45530  Biso   1.000  C
  C16      1.0000 0.15370  0.45530  0.45530  Biso   1.000  C
  C17      1.0000 0.45530  0.15370  0.45530  Biso   1.000  C
  C18      1.0000 0.45530  0.93570  0.45530  Biso   1.000  C
  C19      1.0000 0.93570  0.45530  0.15370  Biso   1.000  C
  C20      1.0000 0.15370  0.45530  0.93570  Biso   1.000  C
  C21      1.0000 0.54470  0.54470  0.06430  Biso   1.000  C
  C22      1.0000 0.54470  0.54470  0.84630  Biso   1.000  C
  C23      1.0000 0.84630  0.06430  0.54470  Biso   1.000  C
  C24      1.0000 0.06430  0.84630  0.54470  Biso   1.000  C
  C25      1.0000 0.06430  0.54470  0.84630  Biso   1.000  C
  C26      1.0000 0.84630  0.54470  0.06430  Biso   1.000  C
  C27      1.0000 0.54470  0.06430  0.54470  Biso   1.000  C
  C28      1.0000 0.54470  0.84630  0.54470  Biso   1.000  C
  C29      1.0000 0.84630  0.54470  0.54470  Biso   1.000  C
  C30      1.0000 0.06430  0.54470  0.54470  Biso   1.000  C
  C31      1.0000 0.54470  0.06430  0.84630  Biso   1.000  C
  C32      1.0000 0.54470  0.84630  0.06430  Biso   1.000  C
  C33      1.0000 0.47331  0.47331  0.96231  Biso   1.000  C
  C34      1.0000 0.47331  0.47331  0.09107  Biso   1.000  C
  C35      1.0000 0.96231  0.09107  0.47331  Biso   1.000  C
  C36      1.0000 0.09107  0.96231  0.47331  Biso   1.000  C
  C37      1.0000 0.47331  0.96231  0.09107  Biso   1.000  C
  C38      1.0000 0.47331  0.09107  0.96231  Biso   1.000  C
  C39      1.0000 0.96231  0.47331  0.47331  Biso   1.000  C
  C40      1.0000 0.09107  0.47331  0.47331  Biso   1.000  C
  C41      1.0000 0.47331  0.09107  0.47331  Biso   1.000  C
  C42      1.0000 0.47331  0.96231  0.47331  Biso   1.000  C
  C43      1.0000 0.96231  0.47331  0.09107  Biso   1.000  C
  C44      1.0000 0.09107  0.47331  0.96231  Biso   1.000  C
  C45      1.0000 0.52669  0.52669  0.03769  Biso   1.000  C
  C46      1.0000 0.52669  0.52669  0.90893  Biso   1.000  C
  C47      1.0000 0.90893  0.03769  0.52669  Biso   1.000  C
  C48      1.0000 0.03769  0.90893  0.52669  Biso   1.000  C
  C49      1.0000 0.03769  0.52669  0.90893  Biso   1.000  C
  C50      1.0000 0.90893  0.52669  0.03769  Biso   1.000  C
  C51      1.0000 0.52669  0.03769  0.52669  Biso   1.000  C
  C52      1.0000 0.52669  0.90893  0.52669  Biso   1.000  C
  C53      1.0000 0.90893  0.52669  0.52669  Biso   1.000  C
  C54      1.0000 0.03769  0.52669  0.52669  Biso   1.000  C
  C55      1.0000 0.52669  0.03769  0.90893  Biso   1.000  C
  C56      1.0000 0.52669  0.90893  0.03769  Biso   1.000  C
  C57      1.0000 0.38853  0.38853  0.11147  Biso   1.000  C
  C58      1.0000 0.44625  0.44625  0.05375  Biso   1.000  C
  C59      1.0000 0.11147  0.11147  0.38853  Biso   1.000  C
  C60      1.0000 0.05375  0.05375  0.44625  Biso   1.000  C
  C61      1.0000 0.38853  0.11147  0.11147  Biso   1.000  C
  C62      1.0000 0.44625  0.05375  0.05375  Biso   1.000  C
  C63      1.0000 0.11147  0.38853  0.38853  Biso   1.000  C
  C64      1.0000 0.05375  0.44625  0.44625  Biso   1.000  C
  C65      1.0000 0.38853  0.11147  0.38853  Biso   1.000  C
  C66      1.0000 0.44625  0.05375  0.44625  Biso   1.000  C
  C67      1.0000 0.11147  0.38853  0.11147  Biso   1.000  C
  C68      1.0000 0.05375  0.44625  0.05375  Biso   1.000  C
  C69      1.0000 0.61147  0.61147  0.88853  Biso   1.000  C
  C70      1.0000 0.55375  0.55375  0.94625  Biso   1.000  C
  C71      1.0000 0.88853  0.88853  0.61147  Biso   1.000  C
  C72      1.0000 0.94625  0.94625  0.55375  Biso   1.000  C
  C73      1.0000 0.88853  0.61147  0.88853  Biso   1.000  C
  C74      1.0000 0.94625  0.55375  0.94625  Biso   1.000  C
  C75      1.0000 0.61147  0.88853  0.61147  Biso   1.000  C
  C76      1.0000 0.55375  0.94625  0.55375  Biso   1.000  C
  C77      1.0000 0.88853  0.61147  0.61147  Biso   1.000  C
  C78      1.0000 0.94625  0.55375  0.55375  Biso   1.000  C
  C79      1.0000 0.61147  0.88853  0.88853  Biso   1.000  C
  C80      1.0000 0.55375  0.94625  0.94625  Biso   1.000  C
  C81      1.0000 0.25000  0.25000  0.25000  Biso   1.000  C
  C82      1.0000 0.75000  0.75000  0.75000  Biso   1.000  C
  C83      1.0000 0.36609  0.36609  0.07299  Biso   1.000  C
  C84      1.0000 0.36609  0.36609  0.19483  Biso   1.000  C
  C85      1.0000 0.07299  0.19483  0.36609  Biso   1.000  C
  C86      1.0000 0.19483  0.07299  0.36609  Biso   1.000  C
  C87      1.0000 0.36609  0.07299  0.19483  Biso   1.000  C
  C88      1.0000 0.36609  0.19483  0.07299  Biso   1.000  C
  C89      1.0000 0.07299  0.36609  0.36609  Biso   1.000  C
  C90      1.0000 0.19483  0.36609  0.36609  Biso   1.000  C
  C91      1.0000 0.36609  0.19483  0.36609  Biso   1.000  C
  C92      1.0000 0.36609  0.07299  0.36609  Biso   1.000  C
  C93      1.0000 0.07299  0.36609  0.19483  Biso   1.000  C
  C94      1.0000 0.19483  0.36609  0.07299  Biso   1.000  C
  C95      1.0000 0.63391  0.63391  0.92701  Biso   1.000  C
  C96      1.0000 0.63391  0.63391  0.80517  Biso   1.000  C
  C97      1.0000 0.80517  0.92701  0.63391  Biso   1.000  C
  C98      1.0000 0.92701  0.80517  0.63391  Biso   1.000  C
  C99      1.0000 0.92701  0.63391  0.80517  Biso   1.000  C
  C100     1.0000 0.80517  0.63391  0.92701  Biso   1.000  C
  C101     1.0000 0.63391  0.92701  0.63391  Biso   1.000  C
  C102     1.0000 0.63391  0.80517  0.63391  Biso   1.000  C
  C103     1.0000 0.80517  0.63391  0.63391  Biso   1.000  C
  C104     1.0000 0.92701  0.63391  0.63391  Biso   1.000  C
  C105     1.0000 0.63391  0.92701  0.80517  Biso   1.000  C
  C106     1.0000 0.63391  0.80517  0.92701  Biso   1.000  C
  O1       1.0000 0.00550  0.83990  0.13403  Biso   1.000  O
  O2       1.0000 0.00550  0.01318  0.13403  Biso   1.000  O
  O3       1.0000 0.83223  0.01318  0.13403  Biso   1.000  O
  O4       1.0000 0.00550  0.01318  0.96076  Biso   1.000  O
  O5       1.0000 0.41952  0.42632  0.54718  Biso   1.000  O
  O6       1.0000 0.41952  0.59960  0.54718  Biso   1.000  O
  O7       1.0000 0.59279  0.42632  0.54718  Biso   1.000  O
  O8       1.0000 0.41952  0.42632  0.72046  Biso   1.000  O
  O9       1.0000 0.87475  0.65592  0.29140  Biso   1.000  O
  O10      1.0000 0.16287  0.17055  0.00328  Biso   1.000  O
  O11      1.0000 0.64825  0.88242  0.29140  Biso   1.000  O
  O12      1.0000 0.16287  0.17055  0.77678  Biso   1.000  O
  O13      1.0000 0.64825  0.17055  0.00328  Biso   1.000  O
  O14      1.0000 0.16287  0.88242  0.29140  Biso   1.000  O
  O15      1.0000 0.87475  0.17055  0.77678  Biso   1.000  O
  O16      1.0000 0.16287  0.65592  0.29140  Biso   1.000  O
  O17      1.0000 0.16287  0.88242  0.77678  Biso   1.000  O
  O18      1.0000 0.87475  0.17055  0.29140  Biso   1.000  O
  O19      1.0000 0.16287  0.65592  0.00328  Biso   1.000  O
  O20      1.0000 0.64825  0.17055  0.29140  Biso   1.000  O
  O21      1.0000 0.55027  0.26896  0.38981  Biso   1.000  O
  O22      1.0000 0.26215  0.78358  0.67794  Biso   1.000  O
  O23      1.0000 0.77677  0.26896  0.38981  Biso   1.000  O
  O24      1.0000 0.26215  0.55708  0.90443  Biso   1.000  O
  O25      1.0000 0.77677  0.26896  0.67794  Biso   1.000  O
  O26      1.0000 0.26215  0.78358  0.38981  Biso   1.000  O
  O27      1.0000 0.55027  0.26896  0.90443  Biso   1.000  O
  O28      1.0000 0.26215  0.55708  0.38981  Biso   1.000  O
  O29      1.0000 0.26215  0.26896  0.90443  Biso   1.000  O
  O30      1.0000 0.55027  0.78358  0.38981  Biso   1.000  O
  O31      1.0000 0.26215  0.26896  0.67794  Biso   1.000  O
  O32      1.0000 0.77677  0.55708  0.38981  Biso   1.000  O
  O33      1.0000 0.80432  0.68153  0.31381  Biso   1.000  O
  O34      1.0000 0.18528  0.19296  0.93285  Biso   1.000  O
  O35      1.0000 0.67386  0.81199  0.31381  Biso   1.000  O
  O36      1.0000 0.18528  0.19296  0.80239  Biso   1.000  O
  O37      1.0000 0.67386  0.19296  0.93285  Biso   1.000  O
  O38      1.0000 0.18528  0.81199  0.31381  Biso   1.000  O
  O39      1.0000 0.80432  0.19296  0.80239  Biso   1.000  O
  O40      1.0000 0.18528  0.68153  0.31381  Biso   1.000  O
  O41      1.0000 0.18528  0.81199  0.80239  Biso   1.000  O
  O42      1.0000 0.80432  0.19296  0.31381  Biso   1.000  O
  O43      1.0000 0.18528  0.68153  0.93285  Biso   1.000  O
  O44      1.0000 0.67386  0.19296  0.31381  Biso   1.000  O
  O45      1.0000 0.62070  0.24655  0.36740  Biso   1.000  O
  O46      1.0000 0.23974  0.75797  0.74837  Biso   1.000  O
  O47      1.0000 0.75116  0.24655  0.36740  Biso   1.000  O
  O48      1.0000 0.23974  0.62751  0.87882  Biso   1.000  O
  O49      1.0000 0.75116  0.24655  0.74837  Biso   1.000  O
  O50      1.0000 0.23974  0.75797  0.36740  Biso   1.000  O
  O51      1.0000 0.62070  0.24655  0.87882  Biso   1.000  O
  O52      1.0000 0.23974  0.62751  0.36740  Biso   1.000  O
  O53      1.0000 0.23974  0.24655  0.87882  Biso   1.000  O
  O54      1.0000 0.62070  0.75797  0.36740  Biso   1.000  O
  O55      1.0000 0.23974  0.24655  0.74837  Biso   1.000  O
  O56      1.0000 0.75116  0.62751  0.36740  Biso   1.000  O
  O57      1.0000 0.82283  0.83050  0.23008  Biso   1.000  O
  O58      1.0000 0.76630  0.77397  0.28660  Biso   1.000  O
  O59      1.0000 0.10155  0.10922  0.95136  Biso   1.000  O
  O60      1.0000 0.15807  0.16574  0.89483  Biso   1.000  O
  O61      1.0000 0.82283  0.10922  0.95136  Biso   1.000  O
  O62      1.0000 0.76630  0.16574  0.89483  Biso   1.000  O
  O63      1.0000 0.10155  0.83050  0.23008  Biso   1.000  O
  O64      1.0000 0.15807  0.77397  0.28660  Biso   1.000  O
  O65      1.0000 0.10155  0.83050  0.95136  Biso   1.000  O
  O66      1.0000 0.15807  0.77397  0.89483  Biso   1.000  O
  O67      1.0000 0.82283  0.10922  0.23008  Biso   1.000  O
  O68      1.0000 0.76630  0.16574  0.28660  Biso   1.000  O
  O69      1.0000 0.60219  0.33028  0.45114  Biso   1.000  O
  O70      1.0000 0.65872  0.27376  0.39461  Biso   1.000  O
  O71      1.0000 0.32347  0.60900  0.72986  Biso   1.000  O
  O72      1.0000 0.26695  0.66553  0.78638  Biso   1.000  O
  O73      1.0000 0.60219  0.33028  0.72986  Biso   1.000  O
  O74      1.0000 0.65872  0.27376  0.78638  Biso   1.000  O
  O75      1.0000 0.32347  0.60900  0.45114  Biso   1.000  O
  O76      1.0000 0.26695  0.66553  0.39461  Biso   1.000  O
  O77      1.0000 0.32347  0.33028  0.72986  Biso   1.000  O
  O78      1.0000 0.26695  0.27376  0.78638  Biso   1.000  O
  O79      1.0000 0.60219  0.60900  0.45114  Biso   1.000  O
  O80      1.0000 0.65872  0.66553  0.39461  Biso   1.000  O
  O81      1.0000 0.96219  0.96986  0.09072  Biso   1.000  O
  O82      1.0000 0.46283  0.46964  0.59050  Biso   1.000  O
  O83      1.0000 0.90746  0.79308  0.20647  Biso   1.000  O
  O84      1.0000 0.07794  0.08561  0.03599  Biso   1.000  O
  O85      1.0000 0.78541  0.91514  0.20647  Biso   1.000  O
  O86      1.0000 0.07794  0.08561  0.91394  Biso   1.000  O
  O87      1.0000 0.78541  0.08561  0.03599  Biso   1.000  O
  O88      1.0000 0.07794  0.91514  0.20647  Biso   1.000  O
  O89      1.0000 0.90746  0.08561  0.91394  Biso   1.000  O
  O90      1.0000 0.07794  0.79308  0.20647  Biso   1.000  O
  O91      1.0000 0.07794  0.91514  0.91394  Biso   1.000  O
  O92      1.0000 0.90746  0.08561  0.20647  Biso   1.000  O
  O93      1.0000 0.07794  0.79308  0.03599  Biso   1.000  O
  O94      1.0000 0.78541  0.08561  0.20647  Biso   1.000  O
  O95      1.0000 0.51756  0.35389  0.47475  Biso   1.000  O
  O96      1.0000 0.34708  0.64642  0.64522  Biso   1.000  O
  O97      1.0000 0.63961  0.35389  0.47475  Biso   1.000  O
  O98      1.0000 0.34708  0.52437  0.76728  Biso   1.000  O
  O99      1.0000 0.63961  0.35389  0.64522  Biso   1.000  O
  O100     1.0000 0.34708  0.64642  0.47475  Biso   1.000  O
  O101     1.0000 0.51756  0.35389  0.76728  Biso   1.000  O
  O102     1.0000 0.34708  0.52437  0.47475  Biso   1.000  O
  O103     1.0000 0.34708  0.35389  0.76728  Biso   1.000  O
  O104     1.0000 0.51756  0.64642  0.47475  Biso   1.000  O
  O105     1.0000 0.34708  0.35389  0.64522  Biso   1.000  O
