data_image0
_cell_length_a       18.2789
_cell_length_b       18.2789
_cell_length_c       18.2789
_cell_angle_alpha    60
_cell_angle_beta     60
_cell_angle_gamma    60

_symmetry_space_group_name_H-M    "P 1"
_symmetry_int_tables_number       1

loop_
  _symmetry_equiv_pos_as_xyz
  'x, y, z'

loop_
  _atom_site_label
  _atom_site_occupancy
  _atom_site_fract_x
  _atom_site_fract_y
  _atom_site_fract_z
  _atom_site_thermal_displace_type
  _atom_site_B_iso_or_equiv
  _atom_site_type_symbol
  Zn1      1.0000 0.29348  0.29347  0.11958  Biso   1.000  Zn
  Zn2      1.0000 0.29348  0.29347  0.29347  Biso   1.000  Zn
  Zn3      1.0000 0.11959  0.29347  0.29347  Biso   1.000  Zn
  Zn4      1.0000 0.29348  0.11958  0.29347  Biso   1.000  Zn
  Zn5      1.0000 0.70652  0.70653  0.88042  Biso   1.000  Zn
  Zn6      1.0000 0.70652  0.70653  0.70653  Biso   1.000  Zn
  Zn7      1.0000 0.70652  0.88042  0.70653  Biso   1.000  Zn
  Zn8      1.0000 0.88041  0.70653  0.70653  Biso   1.000  Zn
  H1       1.0000 0.45520  0.45520  0.93520  Biso   1.000  H
  H2       1.0000 0.45520  0.45520  0.15440  Biso   1.000  H
  H3       1.0000 0.93520  0.15440  0.45520  Biso   1.000  H
  H4       1.0000 0.15440  0.93520  0.45520  Biso   1.000  H
  H5       1.0000 0.45520  0.93520  0.15440  Biso   1.000  H
  H6       1.0000 0.45520  0.15440  0.93520  Biso   1.000  H
  H7       1.0000 0.93520  0.45520  0.45520  Biso   1.000  H
  H8       1.0000 0.15440  0.45520  0.45520  Biso   1.000  H
  H9       1.0000 0.45520  0.15440  0.45520  Biso   1.000  H
  H10      1.0000 0.45520  0.93520  0.45520  Biso   1.000  H
  H11      1.0000 0.93520  0.45520  0.15440  Biso   1.000  H
  H12      1.0000 0.15440  0.45520  0.93520  Biso   1.000  H
  H13      1.0000 0.54480  0.54480  0.06480  Biso   1.000  H
  H14      1.0000 0.54480  0.54480  0.84560  Biso   1.000  H
  H15      1.0000 0.84560  0.06480  0.54480  Biso   1.000  H
  H16      1.0000 0.06480  0.84560  0.54480  Biso   1.000  H
  H17      1.0000 0.06480  0.54480  0.84560  Biso   1.000  H
  H18      1.0000 0.84560  0.54480  0.06480  Biso   1.000  H
  H19      1.0000 0.54480  0.06480  0.54480  Biso   1.000  H
  H20      1.0000 0.54480  0.84560  0.54480  Biso   1.000  H
  H21      1.0000 0.84560  0.54480  0.54480  Biso   1.000  H
  H22      1.0000 0.06480  0.54480  0.54480  Biso   1.000  H
  H23      1.0000 0.54480  0.06480  0.84560  Biso   1.000  H
  H24      1.0000 0.54480  0.84560  0.06480  Biso   1.000  H
  C1       1.0000 0.47338  0.47338  0.96214  Biso   1.000  C
  C2       1.0000 0.47338  0.47338  0.09110  Biso   1.000  C
  C3       1.0000 0.96214  0.09110  0.47338  Biso   1.000  C
  C4       1.0000 0.09110  0.96214  0.47338  Biso   1.000  C
  C5       1.0000 0.47338  0.96214  0.09110  Biso   1.000  C
  C6       1.0000 0.47338  0.09110  0.96214  Biso   1.000  C
  C7       1.0000 0.96214  0.47338  0.47338  Biso   1.000  C
  C8       1.0000 0.09110  0.47338  0.47338  Biso   1.000  C
  C9       1.0000 0.47338  0.09110  0.47338  Biso   1.000  C
  C10      1.0000 0.47338  0.96214  0.47338  Biso   1.000  C
  C11      1.0000 0.96214  0.47338  0.09110  Biso   1.000  C
  C12      1.0000 0.09110  0.47338  0.96214  Biso   1.000  C
  C13      1.0000 0.52662  0.52662  0.03786  Biso   1.000  C
  C14      1.0000 0.52662  0.52662  0.90890  Biso   1.000  C
  C15      1.0000 0.90890  0.03786  0.52662  Biso   1.000  C
  C16      1.0000 0.03786  0.90890  0.52662  Biso   1.000  C
  C17      1.0000 0.03786  0.52662  0.90890  Biso   1.000  C
  C18      1.0000 0.90890  0.52662  0.03786  Biso   1.000  C
  C19      1.0000 0.52662  0.03786  0.52662  Biso   1.000  C
  C20      1.0000 0.52662  0.90890  0.52662  Biso   1.000  C
  C21      1.0000 0.90890  0.52662  0.52662  Biso   1.000  C
  C22      1.0000 0.03786  0.52662  0.52662  Biso   1.000  C
  C23      1.0000 0.52662  0.03786  0.90890  Biso   1.000  C
  C24      1.0000 0.52662  0.90890  0.03786  Biso   1.000  C
  C25      1.0000 0.38853  0.38853  0.11147  Biso   1.000  C
  C26      1.0000 0.44615  0.44615  0.05385  Biso   1.000  C
  C27      1.0000 0.11147  0.11147  0.38853  Biso   1.000  C
  C28      1.0000 0.05385  0.05385  0.44615  Biso   1.000  C
  C29      1.0000 0.38853  0.11147  0.11147  Biso   1.000  C
  C30      1.0000 0.44615  0.05385  0.05385  Biso   1.000  C
  C31      1.0000 0.11147  0.38853  0.38853  Biso   1.000  C
  C32      1.0000 0.05385  0.44615  0.44615  Biso   1.000  C
  C33      1.0000 0.38853  0.11147  0.38853  Biso   1.000  C
  C34      1.0000 0.44615  0.05385  0.44615  Biso   1.000  C
  C35      1.0000 0.11147  0.38853  0.11147  Biso   1.000  C
  C36      1.0000 0.05385  0.44615  0.05385  Biso   1.000  C
  C37      1.0000 0.61147  0.61147  0.88853  Biso   1.000  C
  C38      1.0000 0.55385  0.55385  0.94615  Biso   1.000  C
  C39      1.0000 0.88853  0.88853  0.61147  Biso   1.000  C
  C40      1.0000 0.94615  0.94615  0.55385  Biso   1.000  C
  C41      1.0000 0.88853  0.61147  0.88853  Biso   1.000  C
  C42      1.0000 0.94615  0.55385  0.94615  Biso   1.000  C
  C43      1.0000 0.61147  0.88853  0.61147  Biso   1.000  C
  C44      1.0000 0.55385  0.94615  0.55385  Biso   1.000  C
  C45      1.0000 0.88853  0.61147  0.61147  Biso   1.000  C
  C46      1.0000 0.94615  0.55385  0.55385  Biso   1.000  C
  C47      1.0000 0.61147  0.88853  0.88853  Biso   1.000  C
  C48      1.0000 0.55385  0.94615  0.94615  Biso   1.000  C
  O1       1.0000 0.25000  0.25000  0.25000  Biso   1.000  O
  O2       1.0000 0.75000  0.75000  0.75000  Biso   1.000  O
  O3       1.0000 0.36624  0.36624  0.07286  Biso   1.000  O
  O4       1.0000 0.36624  0.36624  0.19466  Biso   1.000  O
  O5       1.0000 0.07286  0.19466  0.36624  Biso   1.000  O
  O6       1.0000 0.19466  0.07286  0.36624  Biso   1.000  O
  O7       1.0000 0.36624  0.07286  0.19466  Biso   1.000  O
  O8       1.0000 0.36624  0.19466  0.07286  Biso   1.000  O
  O9       1.0000 0.07286  0.36624  0.36624  Biso   1.000  O
  O10      1.0000 0.19466  0.36624  0.36624  Biso   1.000  O
  O11      1.0000 0.36624  0.19466  0.36624  Biso   1.000  O
  O12      1.0000 0.36624  0.07286  0.36624  Biso   1.000  O
  O13      1.0000 0.07286  0.36624  0.19466  Biso   1.000  O
  O14      1.0000 0.19466  0.36624  0.07286  Biso   1.000  O
  O15      1.0000 0.63376  0.63376  0.92714  Biso   1.000  O
  O16      1.0000 0.63376  0.63376  0.80534  Biso   1.000  O
  O17      1.0000 0.80534  0.92714  0.63376  Biso   1.000  O
  O18      1.0000 0.92714  0.80534  0.63376  Biso   1.000  O
  O19      1.0000 0.92714  0.63376  0.80534  Biso   1.000  O
  O20      1.0000 0.80534  0.63376  0.92714  Biso   1.000  O
  O21      1.0000 0.63376  0.92714  0.63376  Biso   1.000  O
  O22      1.0000 0.63376  0.80534  0.63376  Biso   1.000  O
  O23      1.0000 0.80534  0.63376  0.63376  Biso   1.000  O
  O24      1.0000 0.92714  0.63376  0.63376  Biso   1.000  O
  O25      1.0000 0.63376  0.92714  0.80534  Biso   1.000  O
  O26      1.0000 0.63376  0.80534  0.92714  Biso   1.000  O
  Zn9      1.0000 0.50251  0.52004  0.33502  Biso   1.000  Zn
  Zn10     1.0000 0.50252  0.52003  0.50894  Biso   1.000  Zn
  Zn11     1.0000 0.32859  0.52004  0.50893  Biso   1.000  Zn
  Zn12     1.0000 0.50252  0.34611  0.50894  Biso   1.000  Zn
  Zn13     1.0000 0.91617  0.93371  0.09652  Biso   1.000  Zn
  Zn14     1.0000 0.91617  0.93371  0.92260  Biso   1.000  Zn
  Zn15     1.0000 0.91618  0.10762  0.92260  Biso   1.000  Zn
  Zn16     1.0000 0.09011  0.93370  0.92260  Biso   1.000  Zn
  H25      1.0000 0.66439  0.68191  0.15101  Biso   1.000  H
  H26      1.0000 0.66439  0.68191  0.37044  Biso   1.000  H
  H27      1.0000 0.14459  0.38154  0.67081  Biso   1.000  H
  H28      1.0000 0.36401  0.16211  0.67081  Biso   1.000  H
  H29      1.0000 0.66439  0.16211  0.37044  Biso   1.000  H
  H30      1.0000 0.66439  0.38154  0.15101  Biso   1.000  H
  H31      1.0000 0.14459  0.68191  0.67081  Biso   1.000  H
  H32      1.0000 0.36401  0.68191  0.67081  Biso   1.000  H
  H33      1.0000 0.66439  0.38154  0.67081  Biso   1.000  H
  H34      1.0000 0.66439  0.16211  0.67081  Biso   1.000  H
  H35      1.0000 0.14459  0.68191  0.37044  Biso   1.000  H
  H36      1.0000 0.36401  0.68191  0.15101  Biso   1.000  H
  H37      1.0000 0.75430  0.77182  0.28053  Biso   1.000  H
  H38      1.0000 0.75430  0.77182  0.06110  Biso   1.000  H
  H39      1.0000 0.05467  0.29163  0.76073  Biso   1.000  H
  H40      1.0000 0.27410  0.07220  0.76073  Biso   1.000  H
  H41      1.0000 0.27410  0.77182  0.06110  Biso   1.000  H
  H42      1.0000 0.05467  0.77182  0.28053  Biso   1.000  H
  H43      1.0000 0.75430  0.29163  0.76073  Biso   1.000  H
  H44      1.0000 0.75430  0.07220  0.76073  Biso   1.000  H
  H45      1.0000 0.05467  0.77182  0.76073  Biso   1.000  H
  H46      1.0000 0.27410  0.77182  0.76073  Biso   1.000  H
  H47      1.0000 0.75430  0.29163  0.06110  Biso   1.000  H
  H48      1.0000 0.75430  0.07220  0.28053  Biso   1.000  H
  C49      1.0000 0.68265  0.70017  0.17791  Biso   1.000  C
  C50      1.0000 0.68265  0.70017  0.30702  Biso   1.000  C
  C51      1.0000 0.17148  0.31812  0.68908  Biso   1.000  C
  C52      1.0000 0.30059  0.18900  0.68908  Biso   1.000  C
  C53      1.0000 0.68265  0.18900  0.30702  Biso   1.000  C
  C54      1.0000 0.68265  0.31812  0.17791  Biso   1.000  C
  C55      1.0000 0.17148  0.70017  0.68908  Biso   1.000  C
  C56      1.0000 0.30059  0.70017  0.68908  Biso   1.000  C
  C57      1.0000 0.68265  0.31812  0.68908  Biso   1.000  C
  C58      1.0000 0.68265  0.18900  0.68908  Biso   1.000  C
  C59      1.0000 0.17148  0.70017  0.30702  Biso   1.000  C
  C60      1.0000 0.30059  0.70017  0.17791  Biso   1.000  C
  C61      1.0000 0.73604  0.75356  0.25363  Biso   1.000  C
  C62      1.0000 0.73604  0.75356  0.12452  Biso   1.000  C
  C63      1.0000 0.11809  0.26473  0.74246  Biso   1.000  C
  C64      1.0000 0.24721  0.13562  0.74246  Biso   1.000  C
  C65      1.0000 0.24721  0.75356  0.12452  Biso   1.000  C
  C66      1.0000 0.11809  0.75356  0.25363  Biso   1.000  C
  C67      1.0000 0.73604  0.26473  0.74246  Biso   1.000  C
  C68      1.0000 0.73604  0.13562  0.74246  Biso   1.000  C
  C69      1.0000 0.11809  0.75356  0.74246  Biso   1.000  C
  C70      1.0000 0.24721  0.75356  0.74246  Biso   1.000  C
  C71      1.0000 0.73604  0.26473  0.12452  Biso   1.000  C
  C72      1.0000 0.73604  0.13562  0.25363  Biso   1.000  C
  C73      1.0000 0.59763  0.61516  0.32686  Biso   1.000  C
  C74      1.0000 0.65570  0.67322  0.26879  Biso   1.000  C
  C75      1.0000 0.32043  0.33795  0.60406  Biso   1.000  C
  C76      1.0000 0.26237  0.27989  0.66212  Biso   1.000  C
  C77      1.0000 0.59763  0.33795  0.32686  Biso   1.000  C
  C78      1.0000 0.65570  0.27989  0.26879  Biso   1.000  C
  C79      1.0000 0.32043  0.61516  0.60406  Biso   1.000  C
  C80      1.0000 0.26237  0.67322  0.66212  Biso   1.000  C
  C81      1.0000 0.59763  0.33795  0.60406  Biso   1.000  C
  C82      1.0000 0.65570  0.27989  0.66212  Biso   1.000  C
  C83      1.0000 0.32043  0.61516  0.32686  Biso   1.000  C
  C84      1.0000 0.26237  0.67322  0.26879  Biso   1.000  C
  C85      1.0000 0.82105  0.83858  0.10468  Biso   1.000  C
  C86      1.0000 0.76299  0.78051  0.16275  Biso   1.000  C
  C87      1.0000 0.09826  0.11578  0.82748  Biso   1.000  C
  C88      1.0000 0.15632  0.17384  0.76942  Biso   1.000  C
  C89      1.0000 0.09826  0.83858  0.10468  Biso   1.000  C
  C90      1.0000 0.15632  0.78051  0.16275  Biso   1.000  C
  C91      1.0000 0.82105  0.11578  0.82748  Biso   1.000  C
  C92      1.0000 0.76299  0.17384  0.76942  Biso   1.000  C
  C93      1.0000 0.09826  0.83858  0.82748  Biso   1.000  C
  C94      1.0000 0.15632  0.78051  0.76942  Biso   1.000  C
  C95      1.0000 0.82105  0.11578  0.10468  Biso   1.000  C
  C96      1.0000 0.76299  0.17384  0.16275  Biso   1.000  C
  O27      1.0000 0.45903  0.47656  0.46546  Biso   1.000  O
  O28      1.0000 0.95966  0.97718  0.96608  Biso   1.000  O
  O29      1.0000 0.57527  0.59279  0.28819  Biso   1.000  O
  O30      1.0000 0.57527  0.59279  0.41026  Biso   1.000  O
  O31      1.0000 0.28176  0.42136  0.58169  Biso   1.000  O
  O32      1.0000 0.40383  0.29929  0.58169  Biso   1.000  O
  O33      1.0000 0.57527  0.29929  0.41026  Biso   1.000  O
  O34      1.0000 0.57527  0.42136  0.28819  Biso   1.000  O
  O35      1.0000 0.28176  0.59279  0.58169  Biso   1.000  O
  O36      1.0000 0.40383  0.59279  0.58169  Biso   1.000  O
  O37      1.0000 0.57527  0.42136  0.58169  Biso   1.000  O
  O38      1.0000 0.57527  0.29929  0.58169  Biso   1.000  O
  O39      1.0000 0.28176  0.59279  0.41026  Biso   1.000  O
  O40      1.0000 0.40383  0.59279  0.28819  Biso   1.000  O
  O41      1.0000 0.84342  0.86094  0.14335  Biso   1.000  O
  O42      1.0000 0.84342  0.86094  0.02128  Biso   1.000  O
  O43      1.0000 0.01485  0.15445  0.84985  Biso   1.000  O
  O44      1.0000 0.13693  0.03238  0.84985  Biso   1.000  O
  O45      1.0000 0.13693  0.86094  0.02128  Biso   1.000  O
  O46      1.0000 0.01485  0.86094  0.14335  Biso   1.000  O
  O47      1.0000 0.84342  0.15445  0.84985  Biso   1.000  O
  O48      1.0000 0.84342  0.03238  0.84985  Biso   1.000  O
  O49      1.0000 0.01485  0.86094  0.84985  Biso   1.000  O
  O50      1.0000 0.13693  0.86094  0.84985  Biso   1.000  O
  O51      1.0000 0.84342  0.15445  0.02128  Biso   1.000  O
