data_image0
_cell_length_a       18.3083
_cell_length_b       18.3083
_cell_length_c       18.3083
_cell_angle_alpha    60
_cell_angle_beta     60
_cell_angle_gamma    60

_symmetry_space_group_name_H-M    "P 1"
_symmetry_int_tables_number       1

loop_
  _symmetry_equiv_pos_as_xyz
  'x, y, z'

loop_
  _atom_site_label
  _atom_site_occupancy
  _atom_site_fract_x
  _atom_site_fract_y
  _atom_site_fract_z
  _atom_site_thermal_displace_type
  _atom_site_B_iso_or_equiv
  _atom_site_type_symbol
  C1       1.0000 0.29342  0.29341  0.11976  Biso   1.000  C
  C2       1.0000 0.29342  0.29341  0.29341  Biso   1.000  C
  C3       1.0000 0.11977  0.29341  0.29341  Biso   1.000  C
  C4       1.0000 0.29342  0.11976  0.29341  Biso   1.000  C
  C5       1.0000 0.70658  0.70659  0.88024  Biso   1.000  C
  C6       1.0000 0.70658  0.70659  0.70659  Biso   1.000  C
  C7       1.0000 0.70658  0.88024  0.70659  Biso   1.000  C
  C8       1.0000 0.88023  0.70659  0.70659  Biso   1.000  C
  C9       1.0000 0.45480  0.45480  0.93480  Biso   1.000  C
  C10      1.0000 0.45480  0.45480  0.15560  Biso   1.000  C
  C11      1.0000 0.93480  0.15560  0.45480  Biso   1.000  C
  C12      1.0000 0.15560  0.93480  0.45480  Biso   1.000  C
  C13      1.0000 0.45480  0.93480  0.15560  Biso   1.000  C
  C14      1.0000 0.45480  0.15560  0.93480  Biso   1.000  C
  C15      1.0000 0.93480  0.45480  0.45480  Biso   1.000  C
  C16      1.0000 0.15560  0.45480  0.45480  Biso   1.000  C
  C17      1.0000 0.45480  0.15560  0.45480  Biso   1.000  C
  C18      1.0000 0.45480  0.93480  0.45480  Biso   1.000  C
  C19      1.0000 0.93480  0.45480  0.15560  Biso   1.000  C
  C20      1.0000 0.15560  0.45480  0.93480  Biso   1.000  C
  C21      1.0000 0.54520  0.54520  0.06520  Biso   1.000  C
  C22      1.0000 0.54520  0.54520  0.84440  Biso   1.000  C
  C23      1.0000 0.84440  0.06520  0.54520  Biso   1.000  C
  C24      1.0000 0.06520  0.84440  0.54520  Biso   1.000  C
  C25      1.0000 0.06520  0.54520  0.84440  Biso   1.000  C
  C26      1.0000 0.84440  0.54520  0.06520  Biso   1.000  C
  C27      1.0000 0.54520  0.06520  0.54520  Biso   1.000  C
  C28      1.0000 0.54520  0.84440  0.54520  Biso   1.000  C
  C29      1.0000 0.84440  0.54520  0.54520  Biso   1.000  C
  C30      1.0000 0.06520  0.54520  0.54520  Biso   1.000  C
  C31      1.0000 0.54520  0.06520  0.84440  Biso   1.000  C
  C32      1.0000 0.54520  0.84440  0.06520  Biso   1.000  C
  C33      1.0000 0.47317  0.47317  0.96131  Biso   1.000  C
  C34      1.0000 0.47317  0.47317  0.09235  Biso   1.000  C
  C35      1.0000 0.96131  0.09235  0.47317  Biso   1.000  C
  C36      1.0000 0.09235  0.96131  0.47317  Biso   1.000  C
  C37      1.0000 0.47317  0.96131  0.09235  Biso   1.000  C
  C38      1.0000 0.47317  0.09235  0.96131  Biso   1.000  C
  C39      1.0000 0.96131  0.47317  0.47317  Biso   1.000  C
  C40      1.0000 0.09235  0.47317  0.47317  Biso   1.000  C
  C41      1.0000 0.47317  0.09235  0.47317  Biso   1.000  C
  C42      1.0000 0.47317  0.96131  0.47317  Biso   1.000  C
  C43      1.0000 0.96131  0.47317  0.09235  Biso   1.000  C
  C44      1.0000 0.09235  0.47317  0.96131  Biso   1.000  C
  C45      1.0000 0.52683  0.52683  0.03869  Biso   1.000  C
  C46      1.0000 0.52683  0.52683  0.90765  Biso   1.000  C
  C47      1.0000 0.90765  0.03869  0.52683  Biso   1.000  C
  C48      1.0000 0.03869  0.90765  0.52683  Biso   1.000  C
  C49      1.0000 0.03869  0.52683  0.90765  Biso   1.000  C
  C50      1.0000 0.90765  0.52683  0.03869  Biso   1.000  C
  C51      1.0000 0.52683  0.03869  0.52683  Biso   1.000  C
  C52      1.0000 0.52683  0.90765  0.52683  Biso   1.000  C
  C53      1.0000 0.90765  0.52683  0.52683  Biso   1.000  C
  C54      1.0000 0.03869  0.52683  0.52683  Biso   1.000  C
  C55      1.0000 0.52683  0.03869  0.90765  Biso   1.000  C
  C56      1.0000 0.52683  0.90765  0.03869  Biso   1.000  C
  C57      1.0000 0.38843  0.38843  0.11157  Biso   1.000  C
  C58      1.0000 0.44641  0.44641  0.05359  Biso   1.000  C
  C59      1.0000 0.11157  0.11157  0.38843  Biso   1.000  C
  C60      1.0000 0.05359  0.05359  0.44641  Biso   1.000  C
  C61      1.0000 0.38843  0.11157  0.11157  Biso   1.000  C
  C62      1.0000 0.44641  0.05359  0.05359  Biso   1.000  C
  C63      1.0000 0.11157  0.38843  0.38843  Biso   1.000  C
  C64      1.0000 0.05359  0.44641  0.44641  Biso   1.000  C
  C65      1.0000 0.38843  0.11157  0.38843  Biso   1.000  C
  C66      1.0000 0.44641  0.05359  0.44641  Biso   1.000  C
  C67      1.0000 0.11157  0.38843  0.11157  Biso   1.000  C
  C68      1.0000 0.05359  0.44641  0.05359  Biso   1.000  C
  C69      1.0000 0.61157  0.61157  0.88843  Biso   1.000  C
  C70      1.0000 0.55359  0.55359  0.94641  Biso   1.000  C
  C71      1.0000 0.88843  0.88843  0.61157  Biso   1.000  C
  C72      1.0000 0.94641  0.94641  0.55359  Biso   1.000  C
  C73      1.0000 0.88843  0.61157  0.88843  Biso   1.000  C
  C74      1.0000 0.94641  0.55359  0.94641  Biso   1.000  C
  C75      1.0000 0.61157  0.88843  0.61157  Biso   1.000  C
  C76      1.0000 0.55359  0.94641  0.55359  Biso   1.000  C
  C77      1.0000 0.88843  0.61157  0.61157  Biso   1.000  C
  C78      1.0000 0.94641  0.55359  0.55359  Biso   1.000  C
  C79      1.0000 0.61157  0.88843  0.88843  Biso   1.000  C
  C80      1.0000 0.55359  0.94641  0.94641  Biso   1.000  C
  C81      1.0000 0.25000  0.25000  0.25000  Biso   1.000  C
  C82      1.0000 0.75000  0.75000  0.75000  Biso   1.000  C
  C83      1.0000 0.36629  0.36629  0.07237  Biso   1.000  C
  C84      1.0000 0.36629  0.36629  0.19505  Biso   1.000  C
  C85      1.0000 0.07237  0.19505  0.36629  Biso   1.000  C
  C86      1.0000 0.19505  0.07237  0.36629  Biso   1.000  C
  C87      1.0000 0.36629  0.07237  0.19505  Biso   1.000  C
  C88      1.0000 0.36629  0.19505  0.07237  Biso   1.000  C
  C89      1.0000 0.07237  0.36629  0.36629  Biso   1.000  C
  C90      1.0000 0.19505  0.36629  0.36629  Biso   1.000  C
  C91      1.0000 0.36629  0.19505  0.36629  Biso   1.000  C
  C92      1.0000 0.36629  0.07237  0.36629  Biso   1.000  C
  C93      1.0000 0.07237  0.36629  0.19505  Biso   1.000  C
  C94      1.0000 0.19505  0.36629  0.07237  Biso   1.000  C
  C95      1.0000 0.63371  0.63371  0.92763  Biso   1.000  C
  C96      1.0000 0.63371  0.63371  0.80495  Biso   1.000  C
  C97      1.0000 0.80495  0.92763  0.63371  Biso   1.000  C
  C98      1.0000 0.92763  0.80495  0.63371  Biso   1.000  C
  C99      1.0000 0.92763  0.63371  0.80495  Biso   1.000  C
  C100     1.0000 0.80495  0.63371  0.92763  Biso   1.000  C
  C101     1.0000 0.63371  0.92763  0.63371  Biso   1.000  C
  C102     1.0000 0.63371  0.80495  0.63371  Biso   1.000  C
  C103     1.0000 0.80495  0.63371  0.63371  Biso   1.000  C
  C104     1.0000 0.92763  0.63371  0.63371  Biso   1.000  C
  C105     1.0000 0.63371  0.92763  0.80495  Biso   1.000  C
  C106     1.0000 0.63371  0.80495  0.92763  Biso   1.000  C
  O1       1.0000 0.99112  0.97151  0.86964  Biso   1.000  O
  O2       1.0000 0.99117  0.14331  0.86959  Biso   1.000  O
  O3       1.0000 0.16296  0.97151  0.86964  Biso   1.000  O
  O4       1.0000 0.99117  0.97147  0.04143  Biso   1.000  O
  O5       1.0000 0.57278  0.56170  0.45984  Biso   1.000  O
  O6       1.0000 0.57273  0.38991  0.45989  Biso   1.000  O
  O7       1.0000 0.40094  0.56170  0.45984  Biso   1.000  O
  O8       1.0000 0.57273  0.56175  0.28805  Biso   1.000  O
  O9       1.0000 0.81225  0.17068  0.69172  Biso   1.000  O
  O10      1.0000 0.19055  0.79338  0.68972  Biso   1.000  O
  O11      1.0000 0.81165  0.79437  0.06881  Biso   1.000  O
  O12      1.0000 0.81326  0.30958  0.69072  Biso   1.000  O
  O13      1.0000 0.81126  0.31059  0.06901  Biso   1.000  O
  O14      1.0000 0.19036  0.30940  0.69012  Biso   1.000  O
  O15      1.0000 0.32060  0.79359  0.06880  Biso   1.000  O
  O16      1.0000 0.32160  0.79159  0.69151  Biso   1.000  O
  O17      1.0000 0.32041  0.17069  0.69250  Biso   1.000  O
  O18      1.0000 0.18169  0.79259  0.20772  Biso   1.000  O
  O19      1.0000 0.80438  0.17088  0.20872  Biso   1.000  O
  O20      1.0000 0.80538  0.79198  0.20753  Biso   1.000  O
  O21      1.0000 0.75165  0.36254  0.63777  Biso   1.000  O
  O22      1.0000 0.37335  0.73984  0.63976  Biso   1.000  O
  O23      1.0000 0.75225  0.73885  0.26067  Biso   1.000  O
  O24      1.0000 0.75064  0.22363  0.63876  Biso   1.000  O
  O25      1.0000 0.75263  0.22263  0.26047  Biso   1.000  O
  O26      1.0000 0.37354  0.22382  0.63936  Biso   1.000  O
  O27      1.0000 0.24330  0.73963  0.26068  Biso   1.000  O
  O28      1.0000 0.24230  0.74163  0.63798  Biso   1.000  O
  O29      1.0000 0.24349  0.36253  0.63698  Biso   1.000  O
  O30      1.0000 0.38221  0.74063  0.12176  Biso   1.000  O
  O31      1.0000 0.75952  0.36234  0.12076  Biso   1.000  O
  O32      1.0000 0.75852  0.74123  0.12195  Biso   1.000  O
  O33      1.0000 0.83960  0.20895  0.71808  Biso   1.000  O
  O34      1.0000 0.89777  0.15078  0.77625  Biso   1.000  O
  O35      1.0000 0.22861  0.81995  0.10708  Biso   1.000  O
  O36      1.0000 0.17044  0.87812  0.04891  Biso   1.000  O
  O37      1.0000 0.72430  0.32426  0.61141  Biso   1.000  O
  O38      1.0000 0.66612  0.38244  0.55324  Biso   1.000  O
  O39      1.0000 0.33529  0.71327  0.22240  Biso   1.000  O
  O40      1.0000 0.39346  0.65510  0.28058  Biso   1.000  O
  O41      1.0000 0.83941  0.81975  0.10728  Biso   1.000  O
  O42      1.0000 0.89730  0.87764  0.04938  Biso   1.000  O
  O43      1.0000 0.22880  0.20915  0.71788  Biso   1.000  O
  O44      1.0000 0.17091  0.15126  0.77577  Biso   1.000  O
  O45      1.0000 0.72449  0.71347  0.22221  Biso   1.000  O
  O46      1.0000 0.66660  0.65557  0.28010  Biso   1.000  O
  O47      1.0000 0.33509  0.32407  0.61161  Biso   1.000  O
  O48      1.0000 0.39299  0.38196  0.55371  Biso   1.000  O
  O49      1.0000 0.22901  0.81955  0.71768  Biso   1.000  O
  O50      1.0000 0.17111  0.87744  0.77557  Biso   1.000  O
  O51      1.0000 0.83920  0.20935  0.10748  Biso   1.000  O
  O52      1.0000 0.89710  0.15146  0.04958  Biso   1.000  O
  O53      1.0000 0.33489  0.71367  0.61180  Biso   1.000  O
  O54      1.0000 0.39278  0.65577  0.55391  Biso   1.000  O
  O55      1.0000 0.72470  0.32386  0.22201  Biso   1.000  O
  O56      1.0000 0.66680  0.38176  0.27990  Biso   1.000  O
  O57      1.0000 0.92018  0.06727  0.79707  Biso   1.000  O
  O58      1.0000 0.91826  0.90052  0.96623  Biso   1.000  O
  O59      1.0000 0.08651  0.90017  0.79748  Biso   1.000  O
  O60      1.0000 0.91859  0.19107  0.79865  Biso   1.000  O
  O61      1.0000 0.08775  0.19057  0.79673  Biso   1.000  O
  O62      1.0000 0.91901  0.19143  0.96498  Biso   1.000  O
  O63      1.0000 0.21073  0.89894  0.96540  Biso   1.000  O
  O64      1.0000 0.21023  0.06810  0.79865  Biso   1.000  O
  O65      1.0000 0.21108  0.89935  0.79830  Biso   1.000  O
  O66      1.0000 0.08693  0.90053  0.08920  Biso   1.000  O
  O67      1.0000 0.92018  0.89860  0.08870  Biso   1.000  O
  O68      1.0000 0.91982  0.06686  0.08955  Biso   1.000  O
  O69      1.0000 0.64372  0.46595  0.53242  Biso   1.000  O
  O70      1.0000 0.64564  0.63269  0.36325  Biso   1.000  O
  O71      1.0000 0.47739  0.63305  0.53200  Biso   1.000  O
  O72      1.0000 0.64531  0.34215  0.53083  Biso   1.000  O
  O73      1.0000 0.47614  0.34264  0.53275  Biso   1.000  O
  O74      1.0000 0.64489  0.34179  0.36450  Biso   1.000  O
  O75      1.0000 0.35317  0.63428  0.36409  Biso   1.000  O
  O76      1.0000 0.35367  0.46512  0.53083  Biso   1.000  O
  O77      1.0000 0.35281  0.63387  0.53119  Biso   1.000  O
  O78      1.0000 0.47697  0.63269  0.24029  Biso   1.000  O
  O79      1.0000 0.64372  0.63462  0.24078  Biso   1.000  O
  O80      1.0000 0.64408  0.46636  0.23993  Biso   1.000  O
  O81      1.0000 0.03411  0.01445  0.91258  Biso   1.000  O
  O82      1.0000 0.52979  0.51877  0.41691  Biso   1.000  O
  O83      1.0000 0.11461  0.81613  0.71101  Biso   1.000  O
  O84      1.0000 0.35350  0.81288  0.71426  Biso   1.000  O
  O85      1.0000 0.44929  0.71709  0.61848  Biso   1.000  O
  O86      1.0000 0.21039  0.72034  0.61522  Biso   1.000  O
  O87      1.0000 0.35231  0.09476  0.71550  Biso   1.000  O
  O88      1.0000 0.44947  0.19192  0.61834  Biso   1.000  O
  O89      1.0000 0.83268  0.81737  0.99289  Biso   1.000  O
  O90      1.0000 0.73552  0.72021  0.09005  Biso   1.000  O
  O91      1.0000 0.83568  0.34150  0.71233  Biso   1.000  O
  O92      1.0000 0.83255  0.34249  0.99308  Biso   1.000  O
  O93      1.0000 0.45815  0.71903  0.08985  Biso   1.000  O
  O94      1.0000 0.73676  0.43827  0.08886  Biso   1.000  O
  O95      1.0000 0.11443  0.34130  0.71115  Biso   1.000  O
  O96      1.0000 0.21159  0.43846  0.61398  Biso   1.000  O
  O97      1.0000 0.82838  0.81301  0.23943  Biso   1.000  O
  O98      1.0000 0.73122  0.71585  0.33660  Biso   1.000  O
  O99      1.0000 0.21139  0.71721  0.33662  Biso   1.000  O
  O100     1.0000 0.82714  0.09494  0.24062  Biso   1.000  O
  O101     1.0000 0.73135  0.19073  0.33641  Biso   1.000  O
  O102     1.0000 0.10575  0.81419  0.23963  Biso   1.000  O
  O103     1.0000 0.72822  0.19172  0.61716  Biso   1.000  O
  O104     1.0000 0.83385  0.09474  0.71414  Biso   1.000  O
  O105     1.0000 0.73005  0.43848  0.61534  Biso   1.000  O
