data_image0
_cell_length_a       18.2115
_cell_length_b       18.2115
_cell_length_c       18.2115
_cell_angle_alpha    60
_cell_angle_beta     60
_cell_angle_gamma    60

_symmetry_space_group_name_H-M    "P 1"
_symmetry_int_tables_number       1

loop_
  _symmetry_equiv_pos_as_xyz
  'x, y, z'

loop_
  _atom_site_label
  _atom_site_occupancy
  _atom_site_fract_x
  _atom_site_fract_y
  _atom_site_fract_z
  _atom_site_thermal_displace_type
  _atom_site_B_iso_or_equiv
  _atom_site_type_symbol
  C1       1.0000 0.29361  0.29361  0.11917  Biso   1.000  C
  C2       1.0000 0.29361  0.29361  0.29361  Biso   1.000  C
  C3       1.0000 0.11917  0.29361  0.29361  Biso   1.000  C
  C4       1.0000 0.29361  0.11917  0.29361  Biso   1.000  C
  C5       1.0000 0.70639  0.70639  0.88083  Biso   1.000  C
  C6       1.0000 0.70639  0.70639  0.70639  Biso   1.000  C
  C7       1.0000 0.70639  0.88083  0.70639  Biso   1.000  C
  C8       1.0000 0.88083  0.70639  0.70639  Biso   1.000  C
  C9       1.0000 0.45530  0.45530  0.93770  Biso   1.000  C
  C10      1.0000 0.45530  0.45530  0.15170  Biso   1.000  C
  C11      1.0000 0.93770  0.15170  0.45530  Biso   1.000  C
  C12      1.0000 0.15170  0.93770  0.45530  Biso   1.000  C
  C13      1.0000 0.45530  0.93770  0.15170  Biso   1.000  C
  C14      1.0000 0.45530  0.15170  0.93770  Biso   1.000  C
  C15      1.0000 0.93770  0.45530  0.45530  Biso   1.000  C
  C16      1.0000 0.15170  0.45530  0.45530  Biso   1.000  C
  C17      1.0000 0.45530  0.15170  0.45530  Biso   1.000  C
  C18      1.0000 0.45530  0.93770  0.45530  Biso   1.000  C
  C19      1.0000 0.93770  0.45530  0.15170  Biso   1.000  C
  C20      1.0000 0.15170  0.45530  0.93770  Biso   1.000  C
  C21      1.0000 0.54470  0.54470  0.06230  Biso   1.000  C
  C22      1.0000 0.54470  0.54470  0.84830  Biso   1.000  C
  C23      1.0000 0.84830  0.06230  0.54470  Biso   1.000  C
  C24      1.0000 0.06230  0.84830  0.54470  Biso   1.000  C
  C25      1.0000 0.06230  0.54470  0.84830  Biso   1.000  C
  C26      1.0000 0.84830  0.54470  0.06230  Biso   1.000  C
  C27      1.0000 0.54470  0.06230  0.54470  Biso   1.000  C
  C28      1.0000 0.54470  0.84830  0.54470  Biso   1.000  C
  C29      1.0000 0.84830  0.54470  0.54470  Biso   1.000  C
  C30      1.0000 0.06230  0.54470  0.54470  Biso   1.000  C
  C31      1.0000 0.54470  0.06230  0.84830  Biso   1.000  C
  C32      1.0000 0.54470  0.84830  0.06230  Biso   1.000  C
  C33      1.0000 0.47300  0.47300  0.96450  Biso   1.000  C
  C34      1.0000 0.47300  0.47300  0.08950  Biso   1.000  C
  C35      1.0000 0.96450  0.08950  0.47300  Biso   1.000  C
  C36      1.0000 0.08950  0.96450  0.47300  Biso   1.000  C
  C37      1.0000 0.47300  0.96450  0.08950  Biso   1.000  C
  C38      1.0000 0.47300  0.08950  0.96450  Biso   1.000  C
  C39      1.0000 0.96450  0.47300  0.47300  Biso   1.000  C
  C40      1.0000 0.08950  0.47300  0.47300  Biso   1.000  C
  C41      1.0000 0.47300  0.08950  0.47300  Biso   1.000  C
  C42      1.0000 0.47300  0.96450  0.47300  Biso   1.000  C
  C43      1.0000 0.96450  0.47300  0.08950  Biso   1.000  C
  C44      1.0000 0.08950  0.47300  0.96450  Biso   1.000  C
  C45      1.0000 0.52700  0.52700  0.03550  Biso   1.000  C
  C46      1.0000 0.52700  0.52700  0.91050  Biso   1.000  C
  C47      1.0000 0.91050  0.03550  0.52700  Biso   1.000  C
  C48      1.0000 0.03550  0.91050  0.52700  Biso   1.000  C
  C49      1.0000 0.03550  0.52700  0.91050  Biso   1.000  C
  C50      1.0000 0.91050  0.52700  0.03550  Biso   1.000  C
  C51      1.0000 0.52700  0.03550  0.52700  Biso   1.000  C
  C52      1.0000 0.52700  0.91050  0.52700  Biso   1.000  C
  C53      1.0000 0.91050  0.52700  0.52700  Biso   1.000  C
  C54      1.0000 0.03550  0.52700  0.52700  Biso   1.000  C
  C55      1.0000 0.52700  0.03550  0.91050  Biso   1.000  C
  C56      1.0000 0.52700  0.91050  0.03550  Biso   1.000  C
  C57      1.0000 0.38860  0.38860  0.11140  Biso   1.000  C
  C58      1.0000 0.44600  0.44600  0.05400  Biso   1.000  C
  C59      1.0000 0.11140  0.11140  0.38860  Biso   1.000  C
  C60      1.0000 0.05400  0.05400  0.44600  Biso   1.000  C
  C61      1.0000 0.38860  0.11140  0.11140  Biso   1.000  C
  C62      1.0000 0.44600  0.05400  0.05400  Biso   1.000  C
  C63      1.0000 0.11140  0.38860  0.38860  Biso   1.000  C
  C64      1.0000 0.05400  0.44600  0.44600  Biso   1.000  C
  C65      1.0000 0.38860  0.11140  0.38860  Biso   1.000  C
  C66      1.0000 0.44600  0.05400  0.44600  Biso   1.000  C
  C67      1.0000 0.11140  0.38860  0.11140  Biso   1.000  C
  C68      1.0000 0.05400  0.44600  0.05400  Biso   1.000  C
  C69      1.0000 0.61140  0.61140  0.88860  Biso   1.000  C
  C70      1.0000 0.55400  0.55400  0.94600  Biso   1.000  C
  C71      1.0000 0.88860  0.88860  0.61140  Biso   1.000  C
  C72      1.0000 0.94600  0.94600  0.55400  Biso   1.000  C
  C73      1.0000 0.88860  0.61140  0.88860  Biso   1.000  C
  C74      1.0000 0.94600  0.55400  0.94600  Biso   1.000  C
  C75      1.0000 0.61140  0.88860  0.61140  Biso   1.000  C
  C76      1.0000 0.55400  0.94600  0.55400  Biso   1.000  C
  C77      1.0000 0.88860  0.61140  0.61140  Biso   1.000  C
  C78      1.0000 0.94600  0.55400  0.55400  Biso   1.000  C
  C79      1.0000 0.61140  0.88860  0.88860  Biso   1.000  C
  C80      1.0000 0.55400  0.94600  0.94600  Biso   1.000  C
  C81      1.0000 0.25000  0.25000  0.25000  Biso   1.000  C
  C82      1.0000 0.75000  0.75000  0.75000  Biso   1.000  C
  C83      1.0000 0.36611  0.36611  0.07317  Biso   1.000  C
  C84      1.0000 0.36611  0.36611  0.19461  Biso   1.000  C
  C85      1.0000 0.07317  0.19461  0.36611  Biso   1.000  C
  C86      1.0000 0.19461  0.07317  0.36611  Biso   1.000  C
  C87      1.0000 0.36611  0.07317  0.19461  Biso   1.000  C
  C88      1.0000 0.36611  0.19461  0.07317  Biso   1.000  C
  C89      1.0000 0.07317  0.36611  0.36611  Biso   1.000  C
  C90      1.0000 0.19461  0.36611  0.36611  Biso   1.000  C
  C91      1.0000 0.36611  0.19461  0.36611  Biso   1.000  C
  C92      1.0000 0.36611  0.07317  0.36611  Biso   1.000  C
  C93      1.0000 0.07317  0.36611  0.19461  Biso   1.000  C
  C94      1.0000 0.19461  0.36611  0.07317  Biso   1.000  C
  C95      1.0000 0.63389  0.63389  0.92683  Biso   1.000  C
  C96      1.0000 0.63389  0.63389  0.80539  Biso   1.000  C
  C97      1.0000 0.80539  0.92683  0.63389  Biso   1.000  C
  C98      1.0000 0.92683  0.80539  0.63389  Biso   1.000  C
  C99      1.0000 0.92683  0.63389  0.80539  Biso   1.000  C
  C100     1.0000 0.80539  0.63389  0.92683  Biso   1.000  C
  C101     1.0000 0.63389  0.92683  0.63389  Biso   1.000  C
  C102     1.0000 0.63389  0.80539  0.63389  Biso   1.000  C
  C103     1.0000 0.80539  0.63389  0.63389  Biso   1.000  C
  C104     1.0000 0.92683  0.63389  0.63389  Biso   1.000  C
  C105     1.0000 0.63389  0.92683  0.80539  Biso   1.000  C
  C106     1.0000 0.63389  0.80539  0.92683  Biso   1.000  C
  O1       1.0000 0.99639  0.97668  0.87427  Biso   1.000  O
  O2       1.0000 0.99644  0.14938  0.87422  Biso   1.000  O
  O3       1.0000 0.16914  0.97668  0.87427  Biso   1.000  O
  O4       1.0000 0.99644  0.97663  0.04697  Biso   1.000  O
  O5       1.0000 0.58114  0.56469  0.46228  Biso   1.000  O
  O6       1.0000 0.58109  0.39198  0.46233  Biso   1.000  O
  O7       1.0000 0.40838  0.56469  0.46228  Biso   1.000  O
  O8       1.0000 0.58109  0.56474  0.28958  Biso   1.000  O
  O9       1.0000 0.81657  0.17690  0.69539  Biso   1.000  O
  O10      1.0000 0.19687  0.79759  0.69339  Biso   1.000  O
  O11      1.0000 0.81597  0.79859  0.07450  Biso   1.000  O
  O12      1.0000 0.81758  0.31123  0.69440  Biso   1.000  O
  O13      1.0000 0.81558  0.31224  0.07469  Biso   1.000  O
  O14      1.0000 0.19668  0.31104  0.69379  Biso   1.000  O
  O15      1.0000 0.32762  0.79781  0.07449  Biso   1.000  O
  O16      1.0000 0.32863  0.79580  0.69518  Biso   1.000  O
  O17      1.0000 0.32742  0.17691  0.69618  Biso   1.000  O
  O18      1.0000 0.19328  0.79680  0.20883  Biso   1.000  O
  O19      1.0000 0.81397  0.17710  0.20983  Biso   1.000  O
  O20      1.0000 0.81498  0.79619  0.20864  Biso   1.000  O
  O21      1.0000 0.76096  0.36447  0.64116  Biso   1.000  O
  O22      1.0000 0.38065  0.74377  0.64316  Biso   1.000  O
  O23      1.0000 0.76156  0.74277  0.26205  Biso   1.000  O
  O24      1.0000 0.75994  0.23014  0.64215  Biso   1.000  O
  O25      1.0000 0.76195  0.22913  0.26186  Biso   1.000  O
  O26      1.0000 0.38084  0.23033  0.64276  Biso   1.000  O
  O27      1.0000 0.24991  0.74356  0.26206  Biso   1.000  O
  O28      1.0000 0.24890  0.74557  0.64137  Biso   1.000  O
  O29      1.0000 0.25010  0.36446  0.64037  Biso   1.000  O
  O30      1.0000 0.38424  0.74457  0.12772  Biso   1.000  O
  O31      1.0000 0.76355  0.36426  0.12672  Biso   1.000  O
  O32      1.0000 0.76255  0.74517  0.12791  Biso   1.000  O
  O33      1.0000 0.84406  0.21538  0.72189  Biso   1.000  O
  O34      1.0000 0.90255  0.15690  0.78037  Biso   1.000  O
  O35      1.0000 0.23514  0.82431  0.11296  Biso   1.000  O
  O36      1.0000 0.17666  0.88279  0.05448  Biso   1.000  O
  O37      1.0000 0.73346  0.32599  0.61466  Biso   1.000  O
  O38      1.0000 0.67498  0.38447  0.55618  Biso   1.000  O
  O39      1.0000 0.34238  0.71706  0.22359  Biso   1.000  O
  O40      1.0000 0.40087  0.65858  0.28207  Biso   1.000  O
  O41      1.0000 0.84387  0.82411  0.11316  Biso   1.000  O
  O42      1.0000 0.90207  0.88231  0.05496  Biso   1.000  O
  O43      1.0000 0.23534  0.21558  0.72169  Biso   1.000  O
  O44      1.0000 0.17713  0.15738  0.77990  Biso   1.000  O
  O45      1.0000 0.73366  0.71726  0.22339  Biso   1.000  O
  O46      1.0000 0.67545  0.65906  0.28159  Biso   1.000  O
  O47      1.0000 0.34219  0.32579  0.61486  Biso   1.000  O
  O48      1.0000 0.40039  0.38399  0.55665  Biso   1.000  O
  O49      1.0000 0.23554  0.82390  0.72149  Biso   1.000  O
  O50      1.0000 0.17734  0.88211  0.77970  Biso   1.000  O
  O51      1.0000 0.84366  0.21578  0.11336  Biso   1.000  O
  O52      1.0000 0.90187  0.15758  0.05516  Biso   1.000  O
  O53      1.0000 0.34198  0.71746  0.61506  Biso   1.000  O
  O54      1.0000 0.40019  0.65926  0.55685  Biso   1.000  O
  O55      1.0000 0.73386  0.32559  0.22319  Biso   1.000  O
  O56      1.0000 0.67566  0.38379  0.28139  Biso   1.000  O
  O57      1.0000 0.92507  0.07294  0.80130  Biso   1.000  O
  O58      1.0000 0.92314  0.90531  0.97137  Biso   1.000  O
  O59      1.0000 0.09229  0.90495  0.80172  Biso   1.000  O
  O60      1.0000 0.92347  0.19740  0.80290  Biso   1.000  O
  O61      1.0000 0.09354  0.19690  0.80096  Biso   1.000  O
  O62      1.0000 0.92389  0.19776  0.97011  Biso   1.000  O
  O63      1.0000 0.21716  0.90372  0.97053  Biso   1.000  O
  O64      1.0000 0.21666  0.07378  0.80290  Biso   1.000  O
  O65      1.0000 0.21752  0.90413  0.80254  Biso   1.000  O
  O66      1.0000 0.09270  0.90531  0.09499  Biso   1.000  O
  O67      1.0000 0.92507  0.90338  0.09449  Biso   1.000  O
  O68      1.0000 0.92471  0.07253  0.09534  Biso   1.000  O
  O69      1.0000 0.65246  0.46843  0.53525  Biso   1.000  O
  O70      1.0000 0.65439  0.63606  0.36518  Biso   1.000  O
  O71      1.0000 0.48524  0.63642  0.53483  Biso   1.000  O
  O72      1.0000 0.65405  0.34397  0.53365  Biso   1.000  O
  O73      1.0000 0.48399  0.34447  0.53559  Biso   1.000  O
  O74      1.0000 0.65363  0.34361  0.36644  Biso   1.000  O
  O75      1.0000 0.36036  0.63765  0.36602  Biso   1.000  O
  O76      1.0000 0.36086  0.46759  0.53365  Biso   1.000  O
  O77      1.0000 0.36000  0.63723  0.53401  Biso   1.000  O
  O78      1.0000 0.48482  0.63606  0.24156  Biso   1.000  O
  O79      1.0000 0.65245  0.63799  0.24206  Biso   1.000  O
  O80      1.0000 0.65281  0.46884  0.24121  Biso   1.000  O
  O81      1.0000 0.03960  0.01984  0.91743  Biso   1.000  O
  O82      1.0000 0.53792  0.52152  0.41912  Biso   1.000  O
  O83      1.0000 0.12053  0.82047  0.71479  Biso   1.000  O
  O84      1.0000 0.36070  0.81720  0.71806  Biso   1.000  O
  O85      1.0000 0.45699  0.72090  0.62176  Biso   1.000  O
  O86      1.0000 0.21683  0.72417  0.61849  Biso   1.000  O
  O87      1.0000 0.35950  0.10058  0.71930  Biso   1.000  O
  O88      1.0000 0.45717  0.19826  0.62162  Biso   1.000  O
  O89      1.0000 0.83710  0.82171  0.99816  Biso   1.000  O
  O90      1.0000 0.73943  0.72404  0.09584  Biso   1.000  O
  O91      1.0000 0.84012  0.34331  0.71611  Biso   1.000  O
  O92      1.0000 0.83697  0.34431  0.99835  Biso   1.000  O
  O93      1.0000 0.46058  0.72285  0.09564  Biso   1.000  O
  O94      1.0000 0.74068  0.44060  0.09465  Biso   1.000  O
  O95      1.0000 0.12035  0.34311  0.71493  Biso   1.000  O
  O96      1.0000 0.21803  0.44079  0.61725  Biso   1.000  O
  O97      1.0000 0.83810  0.81733  0.24071  Biso   1.000  O
  O98      1.0000 0.74042  0.71965  0.33839  Biso   1.000  O
  O99      1.0000 0.21783  0.72102  0.33841  Biso   1.000  O
  O100     1.0000 0.83685  0.10076  0.24190  Biso   1.000  O
  O101     1.0000 0.74055  0.19706  0.33820  Biso   1.000  O
  O102     1.0000 0.11694  0.81852  0.24091  Biso   1.000  O
  O103     1.0000 0.73740  0.19806  0.62044  Biso   1.000  O
  O104     1.0000 0.83829  0.10056  0.71794  Biso   1.000  O
  O105     1.0000 0.73924  0.44081  0.61861  Biso   1.000  O
