data_image0
_cell_length_a       18.2486
_cell_length_b       18.2486
_cell_length_c       18.2486
_cell_angle_alpha    60
_cell_angle_beta     60
_cell_angle_gamma    60

_symmetry_space_group_name_H-M    "P 1"
_symmetry_int_tables_number       1

loop_
  _symmetry_equiv_pos_as_xyz
  'x, y, z'

loop_
  _atom_site_label
  _atom_site_occupancy
  _atom_site_fract_x
  _atom_site_fract_y
  _atom_site_fract_z
  _atom_site_thermal_displace_type
  _atom_site_B_iso_or_equiv
  _atom_site_type_symbol
  Zn1      1.0000 0.11962  0.29346  0.29346  Biso   1.000  Zn
  Zn2      1.0000 0.70654  0.88038  0.70654  Biso   1.000  Zn
  Zn3      1.0000 0.29346  0.29346  0.11962  Biso   1.000  Zn
  Zn4      1.0000 0.29346  0.29346  0.29346  Biso   1.000  Zn
  Zn5      1.0000 0.88038  0.70654  0.70654  Biso   1.000  Zn
  Zn6      1.0000 0.29346  0.11962  0.29346  Biso   1.000  Zn
  Zn7      1.0000 0.70654  0.70654  0.88038  Biso   1.000  Zn
  Zn8      1.0000 0.70654  0.70654  0.70654  Biso   1.000  Zn
  H1       1.0000 0.15060  0.45640  0.45640  Biso   1.000  H
  H2       1.0000 0.84940  0.54360  0.06340  Biso   1.000  H
  H3       1.0000 0.45640  0.93660  0.45640  Biso   1.000  H
  H4       1.0000 0.54360  0.84940  0.06340  Biso   1.000  H
  H5       1.0000 0.84940  0.54360  0.54360  Biso   1.000  H
  H6       1.0000 0.45640  0.15060  0.93660  Biso   1.000  H
  H7       1.0000 0.45640  0.93660  0.15060  Biso   1.000  H
  H8       1.0000 0.06340  0.54360  0.54360  Biso   1.000  H
  H9       1.0000 0.45640  0.15060  0.45640  Biso   1.000  H
  H10      1.0000 0.93660  0.45640  0.45640  Biso   1.000  H
  H11      1.0000 0.93660  0.15060  0.45640  Biso   1.000  H
  H12      1.0000 0.45640  0.45640  0.15060  Biso   1.000  H
  H13      1.0000 0.06340  0.84940  0.54360  Biso   1.000  H
  H14      1.0000 0.06340  0.54360  0.84940  Biso   1.000  H
  H15      1.0000 0.54360  0.06340  0.84940  Biso   1.000  H
  H16      1.0000 0.54360  0.84940  0.54360  Biso   1.000  H
  H17      1.0000 0.15060  0.93660  0.45640  Biso   1.000  H
  H18      1.0000 0.54360  0.06340  0.54360  Biso   1.000  H
  H19      1.0000 0.93660  0.45640  0.15060  Biso   1.000  H
  H20      1.0000 0.84940  0.06340  0.54360  Biso   1.000  H
  H21      1.0000 0.45640  0.45640  0.93660  Biso   1.000  H
  H22      1.0000 0.54360  0.54360  0.06340  Biso   1.000  H
  H23      1.0000 0.15060  0.45640  0.93660  Biso   1.000  H
  H24      1.0000 0.54360  0.54360  0.84940  Biso   1.000  H
  C1       1.0000 0.89030  0.60970  0.60970  Biso   1.000  C
  C2       1.0000 0.55390  0.55390  0.94610  Biso   1.000  C
  C3       1.0000 0.03650  0.91130  0.52610  Biso   1.000  C
  C4       1.0000 0.47390  0.96350  0.08870  Biso   1.000  C
  C5       1.0000 0.91130  0.52610  0.03650  Biso   1.000  C
  C6       1.0000 0.47390  0.47390  0.08870  Biso   1.000  C
  C7       1.0000 0.96350  0.08870  0.47390  Biso   1.000  C
  C8       1.0000 0.39030  0.10970  0.39030  Biso   1.000  C
  C9       1.0000 0.44610  0.05390  0.44610  Biso   1.000  C
  C10      1.0000 0.52610  0.52610  0.03650  Biso   1.000  C
  C11      1.0000 0.52610  0.91130  0.03650  Biso   1.000  C
  C12      1.0000 0.10970  0.10970  0.39030  Biso   1.000  C
  C13      1.0000 0.05390  0.44610  0.44610  Biso   1.000  C
  C14      1.0000 0.55390  0.94610  0.55390  Biso   1.000  C
  C15      1.0000 0.44610  0.05390  0.05390  Biso   1.000  C
  C16      1.0000 0.94610  0.55390  0.55390  Biso   1.000  C
  C17      1.0000 0.94610  0.55390  0.94610  Biso   1.000  C
  C18      1.0000 0.39030  0.39030  0.10970  Biso   1.000  C
  C19      1.0000 0.03650  0.52610  0.52610  Biso   1.000  C
  C20      1.0000 0.08870  0.47390  0.96350  Biso   1.000  C
  C21      1.0000 0.47390  0.96350  0.47390  Biso   1.000  C
  C22      1.0000 0.47390  0.47390  0.96350  Biso   1.000  C
  C23      1.0000 0.60970  0.89030  0.60970  Biso   1.000  C
  C24      1.0000 0.94610  0.94610  0.55390  Biso   1.000  C
  C25      1.0000 0.05390  0.05390  0.44610  Biso   1.000  C
  C26      1.0000 0.39030  0.10970  0.10970  Biso   1.000  C
  C27      1.0000 0.03650  0.52610  0.91130  Biso   1.000  C
  C28      1.0000 0.44610  0.44610  0.05390  Biso   1.000  C
  C29      1.0000 0.10970  0.39030  0.39030  Biso   1.000  C
  C30      1.0000 0.89030  0.89030  0.60970  Biso   1.000  C
  C31      1.0000 0.60970  0.89030  0.89030  Biso   1.000  C
  C32      1.0000 0.96350  0.47390  0.47390  Biso   1.000  C
  C33      1.0000 0.89030  0.60970  0.89030  Biso   1.000  C
  C34      1.0000 0.08870  0.47390  0.47390  Biso   1.000  C
  C35      1.0000 0.91130  0.52610  0.52610  Biso   1.000  C
  C36      1.0000 0.47390  0.08870  0.47390  Biso   1.000  C
  C37      1.0000 0.47390  0.08870  0.96350  Biso   1.000  C
  C38      1.0000 0.08870  0.96350  0.47390  Biso   1.000  C
  C39      1.0000 0.10970  0.39030  0.10970  Biso   1.000  C
  C40      1.0000 0.96350  0.47390  0.08870  Biso   1.000  C
  C41      1.0000 0.52610  0.52610  0.91130  Biso   1.000  C
  C42      1.0000 0.60970  0.60970  0.89030  Biso   1.000  C
  C43      1.0000 0.52610  0.91130  0.52610  Biso   1.000  C
  C44      1.0000 0.91130  0.03650  0.52610  Biso   1.000  C
  C45      1.0000 0.52610  0.03650  0.91130  Biso   1.000  C
  C46      1.0000 0.05390  0.44610  0.05390  Biso   1.000  C
  C47      1.0000 0.55390  0.94610  0.94610  Biso   1.000  C
  C48      1.0000 0.52610  0.03650  0.52610  Biso   1.000  C
  O1       1.0000 0.63380  0.80300  0.92940  Biso   1.000  O
  O2       1.0000 0.07060  0.19700  0.36620  Biso   1.000  O
  O3       1.0000 0.80300  0.63380  0.63380  Biso   1.000  O
  O4       1.0000 0.80300  0.92940  0.63380  Biso   1.000  O
  O5       1.0000 0.36620  0.07060  0.19700  Biso   1.000  O
  O6       1.0000 0.07060  0.36620  0.19700  Biso   1.000  O
  O7       1.0000 0.63380  0.92940  0.63380  Biso   1.000  O
  O8       1.0000 0.63380  0.80300  0.63380  Biso   1.000  O
  O9       1.0000 0.36620  0.36620  0.19700  Biso   1.000  O
  O10      1.0000 0.36620  0.07060  0.36620  Biso   1.000  O
  O11      1.0000 0.75000  0.75000  0.75000  Biso   1.000  O
  O12      1.0000 0.80300  0.63380  0.92940  Biso   1.000  O
  O13      1.0000 0.92940  0.80300  0.63380  Biso   1.000  O
  O14      1.0000 0.36620  0.19700  0.36620  Biso   1.000  O
  O15      1.0000 0.63380  0.63380  0.80300  Biso   1.000  O
  O16      1.0000 0.19700  0.36620  0.07060  Biso   1.000  O
  O17      1.0000 0.63380  0.63380  0.92940  Biso   1.000  O
  O18      1.0000 0.36620  0.36620  0.07060  Biso   1.000  O
  O19      1.0000 0.63380  0.92940  0.80300  Biso   1.000  O
  O20      1.0000 0.19700  0.07060  0.36620  Biso   1.000  O
  O21      1.0000 0.36620  0.19700  0.07060  Biso   1.000  O
  O22      1.0000 0.92940  0.63380  0.80300  Biso   1.000  O
  O23      1.0000 0.25000  0.25000  0.25000  Biso   1.000  O
  O24      1.0000 0.19700  0.36620  0.36620  Biso   1.000  O
  O25      1.0000 0.92940  0.63380  0.63380  Biso   1.000  O
  O26      1.0000 0.07060  0.36620  0.36620  Biso   1.000  O
  Zn9      1.0000 0.16440  0.00000  0.00000  Biso   1.000  Zn
  Zn10     1.0000 0.57646  0.58780  0.41234  Biso   1.000  Zn
  Zn11     1.0000 0.57646  0.41289  0.41234  Biso   1.000  Zn
  Zn12     1.0000 0.16440  0.82509  0.00000  Biso   1.000  Zn
  Zn13     1.0000 0.16394  0.00034  0.82487  Biso   1.000  Zn
  Zn14     1.0000 0.98908  0.00015  0.00010  Biso   1.000  Zn
  Zn15     1.0000 0.57692  0.41255  0.58747  Biso   1.000  Zn
  Zn16     1.0000 0.75177  0.41274  0.41224  Biso   1.000  Zn
  H25      1.0000 0.32734  0.64562  0.85641  Biso   1.000  H
  H26      1.0000 0.32121  0.86028  0.64465  Biso   1.000  H
  H27      1.0000 0.02340  0.64670  0.16018  Biso   1.000  H
  H28      1.0000 0.80604  0.85776  0.16248  Biso   1.000  H
  H29      1.0000 0.32815  0.85976  0.15768  Biso   1.000  H
  H30      1.0000 0.41352  0.25276  0.55593  Biso   1.000  H
  H31      1.0000 0.41965  0.24955  0.76768  Biso   1.000  H
  H32      1.0000 0.71746  0.25368  0.25216  Biso   1.000  H
  H33      1.0000 0.93482  0.24968  0.24986  Biso   1.000  H
  H34      1.0000 0.41270  0.76899  0.25466  Biso   1.000  H
  H35      1.0000 0.41352  0.76727  0.55593  Biso   1.000  H
  H36      1.0000 0.41965  0.55260  0.76768  Biso   1.000  H
  H37      1.0000 0.71746  0.76619  0.25216  Biso   1.000  H
  H38      1.0000 0.93482  0.55513  0.24986  Biso   1.000  H
  H39      1.0000 0.41271  0.55313  0.25466  Biso   1.000  H
  H40      1.0000 0.32734  0.16013  0.85641  Biso   1.000  H
  H41      1.0000 0.32121  0.16334  0.64465  Biso   1.000  H
  H42      1.0000 0.02340  0.15921  0.16018  Biso   1.000  H
  H43      1.0000 0.80604  0.16321  0.16248  Biso   1.000  H
  H44      1.0000 0.32816  0.64390  0.15768  Biso   1.000  H
  H45      1.0000 0.80693  0.16203  0.85851  Biso   1.000  H
  H46      1.0000 0.02085  0.16314  0.64235  Biso   1.000  H
  H47      1.0000 0.93393  0.25086  0.55383  Biso   1.000  H
  H48      1.0000 0.72001  0.24975  0.76998  Biso   1.000  H
  C49      1.0000 0.25870  0.81657  0.82000  Biso   1.000  C
  C50      1.0000 0.31831  0.75846  0.75878  Biso   1.000  C
  C51      1.0000 0.34514  0.67133  0.79419  Biso   1.000  C
  C52      1.0000 0.34061  0.79817  0.67066  Biso   1.000  C
  C53      1.0000 0.97957  0.81975  0.09716  Biso   1.000  C
  C54      1.0000 0.92546  0.76124  0.15248  Biso   1.000  C
  C55      1.0000 0.96119  0.67291  0.17818  Biso   1.000  C
  C56      1.0000 0.83374  0.79574  0.17998  Biso   1.000  C
  C57      1.0000 0.34406  0.79764  0.17778  Biso   1.000  C
  C58      1.0000 0.48215  0.31867  0.59234  Biso   1.000  C
  C59      1.0000 0.42255  0.25896  0.65356  Biso   1.000  C
  C60      1.0000 0.39572  0.23405  0.61815  Biso   1.000  C
  C61      1.0000 0.40025  0.23285  0.74168  Biso   1.000  C
  C62      1.0000 0.76129  0.31989  0.31517  Biso   1.000  C
  C63      1.0000 0.81540  0.26258  0.25986  Biso   1.000  C
  C64      1.0000 0.77967  0.23567  0.23416  Biso   1.000  C
  C65      1.0000 0.90711  0.23287  0.23236  Biso   1.000  C
  C66      1.0000 0.39680  0.74288  0.23456  Biso   1.000  C
  C67      1.0000 0.48216  0.59632  0.59234  Biso   1.000  C
  C68      1.0000 0.42255  0.65443  0.65356  Biso   1.000  C
  C69      1.0000 0.39572  0.74156  0.61815  Biso   1.000  C
  C70      1.0000 0.40025  0.61472  0.74168  Biso   1.000  C
  C71      1.0000 0.76129  0.59314  0.31517  Biso   1.000  C
  C72      1.0000 0.81540  0.65165  0.25986  Biso   1.000  C
  C73      1.0000 0.77967  0.73998  0.23416  Biso   1.000  C
  C74      1.0000 0.90712  0.61714  0.23236  Biso   1.000  C
  C75      1.0000 0.39680  0.61524  0.23456  Biso   1.000  C
  C76      1.0000 0.25870  0.09422  0.82000  Biso   1.000  C
  C77      1.0000 0.31831  0.15393  0.75878  Biso   1.000  C
  C78      1.0000 0.34514  0.17883  0.79419  Biso   1.000  C
  C79      1.0000 0.34061  0.18004  0.67066  Biso   1.000  C
  C80      1.0000 0.97957  0.09300  0.09716  Biso   1.000  C
  C81      1.0000 0.92546  0.15031  0.15248  Biso   1.000  C
  C82      1.0000 0.96119  0.17721  0.17818  Biso   1.000  C
  C83      1.0000 0.83375  0.18001  0.17998  Biso   1.000  C
  C84      1.0000 0.34406  0.67001  0.17778  Biso   1.000  C
  C85      1.0000 0.98626  0.09502  0.81319  Biso   1.000  C
  C86      1.0000 0.92404  0.15223  0.76098  Biso   1.000  C
  C87      1.0000 0.83413  0.17943  0.79649  Biso   1.000  C
  C88      1.0000 0.95874  0.18064  0.66946  Biso   1.000  C
  C89      1.0000 0.25722  0.82155  0.08916  Biso   1.000  C
  C90      1.0000 0.31723  0.75984  0.15258  Biso   1.000  C
  C91      1.0000 0.75460  0.31787  0.59914  Biso   1.000  C
  C92      1.0000 0.81682  0.26066  0.65136  Biso   1.000  C
  C93      1.0000 0.90673  0.23345  0.61585  Biso   1.000  C
  C94      1.0000 0.78212  0.23225  0.74288  Biso   1.000  C
  C95      1.0000 0.48364  0.59134  0.32318  Biso   1.000  C
  C96      1.0000 0.42363  0.65305  0.25976  Biso   1.000  C
  O27      1.0000 0.23860  0.90198  0.77409  Biso   1.000  O
  O28      1.0000 0.23990  0.77265  0.90422  Biso   1.000  O
  O29      1.0000 0.93966  0.90297  0.07066  Biso   1.000  O
  O30      1.0000 0.06588  0.77564  0.07466  Biso   1.000  O
  O31      1.0000 0.23811  0.90397  0.07186  Biso   1.000  O
  O32      1.0000 0.50226  0.33807  0.63825  Biso   1.000  O
  O33      1.0000 0.50095  0.34018  0.50812  Biso   1.000  O
  O34      1.0000 0.80120  0.33669  0.34168  Biso   1.000  O
  O35      1.0000 0.67498  0.33959  0.33768  Biso   1.000  O
  O36      1.0000 0.50275  0.63734  0.34048  Biso   1.000  O
  O37      1.0000 0.50226  0.51090  0.63825  Biso   1.000  O
  O38      1.0000 0.50096  0.64023  0.50812  Biso   1.000  O
  O39      1.0000 0.80120  0.50992  0.34168  Biso   1.000  O
  O40      1.0000 0.67498  0.63724  0.33768  Biso   1.000  O
  O41      1.0000 0.50275  0.50892  0.34048  Biso   1.000  O
  O42      1.0000 0.23860  0.07482  0.77409  Biso   1.000  O
  O43      1.0000 0.23991  0.07271  0.90422  Biso   1.000  O
  O44      1.0000 0.93966  0.07620  0.07066  Biso   1.000  O
  O45      1.0000 0.06588  0.07330  0.07466  Biso   1.000  O
  O46      1.0000 0.23811  0.77554  0.07186  Biso   1.000  O
  O47      1.0000 0.12119  0.95618  0.95593  Biso   1.000  O
  O48      1.0000 0.06707  0.07382  0.77479  Biso   1.000  O
  O49      1.0000 0.94105  0.07611  0.89621  Biso   1.000  O
  O50      1.0000 0.61967  0.45670  0.45641  Biso   1.000  O
  O51      1.0000 0.67379  0.33907  0.63755  Biso   1.000  O
