data_image0
_cell_length_a       18.2486
_cell_length_b       18.2486
_cell_length_c       18.2486
_cell_angle_alpha    60
_cell_angle_beta     60
_cell_angle_gamma    60

_symmetry_space_group_name_H-M    "P 1"
_symmetry_int_tables_number       1

loop_
  _symmetry_equiv_pos_as_xyz
  'x, y, z'

loop_
  _atom_site_label
  _atom_site_occupancy
  _atom_site_fract_x
  _atom_site_fract_y
  _atom_site_fract_z
  _atom_site_thermal_displace_type
  _atom_site_B_iso_or_equiv
  _atom_site_type_symbol
  C1       1.0000 0.11962  0.29346  0.29346  Biso   1.000  C
  C2       1.0000 0.70654  0.88038  0.70654  Biso   1.000  C
  C3       1.0000 0.29346  0.29346  0.11962  Biso   1.000  C
  C4       1.0000 0.29346  0.29346  0.29346  Biso   1.000  C
  C5       1.0000 0.88038  0.70654  0.70654  Biso   1.000  C
  C6       1.0000 0.29346  0.11962  0.29346  Biso   1.000  C
  C7       1.0000 0.70654  0.70654  0.88038  Biso   1.000  C
  C8       1.0000 0.70654  0.70654  0.70654  Biso   1.000  C
  C9       1.0000 0.15060  0.45640  0.45640  Biso   1.000  C
  C10      1.0000 0.84940  0.54360  0.06340  Biso   1.000  C
  C11      1.0000 0.45640  0.93660  0.45640  Biso   1.000  C
  C12      1.0000 0.54360  0.84940  0.06340  Biso   1.000  C
  C13      1.0000 0.84940  0.54360  0.54360  Biso   1.000  C
  C14      1.0000 0.45640  0.15060  0.93660  Biso   1.000  C
  C15      1.0000 0.45640  0.93660  0.15060  Biso   1.000  C
  C16      1.0000 0.06340  0.54360  0.54360  Biso   1.000  C
  C17      1.0000 0.45640  0.15060  0.45640  Biso   1.000  C
  C18      1.0000 0.93660  0.45640  0.45640  Biso   1.000  C
  C19      1.0000 0.93660  0.15060  0.45640  Biso   1.000  C
  C20      1.0000 0.45640  0.45640  0.15060  Biso   1.000  C
  C21      1.0000 0.06340  0.84940  0.54360  Biso   1.000  C
  C22      1.0000 0.06340  0.54360  0.84940  Biso   1.000  C
  C23      1.0000 0.54360  0.06340  0.84940  Biso   1.000  C
  C24      1.0000 0.54360  0.84940  0.54360  Biso   1.000  C
  C25      1.0000 0.15060  0.93660  0.45640  Biso   1.000  C
  C26      1.0000 0.54360  0.06340  0.54360  Biso   1.000  C
  C27      1.0000 0.93660  0.45640  0.15060  Biso   1.000  C
  C28      1.0000 0.84940  0.06340  0.54360  Biso   1.000  C
  C29      1.0000 0.45640  0.45640  0.93660  Biso   1.000  C
  C30      1.0000 0.54360  0.54360  0.06340  Biso   1.000  C
  C31      1.0000 0.15060  0.45640  0.93660  Biso   1.000  C
  C32      1.0000 0.54360  0.54360  0.84940  Biso   1.000  C
  C33      1.0000 0.89030  0.60970  0.60970  Biso   1.000  C
  C34      1.0000 0.55390  0.55390  0.94610  Biso   1.000  C
  C35      1.0000 0.03650  0.91130  0.52610  Biso   1.000  C
  C36      1.0000 0.47390  0.96350  0.08870  Biso   1.000  C
  C37      1.0000 0.91130  0.52610  0.03650  Biso   1.000  C
  C38      1.0000 0.47390  0.47390  0.08870  Biso   1.000  C
  C39      1.0000 0.96350  0.08870  0.47390  Biso   1.000  C
  C40      1.0000 0.39030  0.10970  0.39030  Biso   1.000  C
  C41      1.0000 0.44610  0.05390  0.44610  Biso   1.000  C
  C42      1.0000 0.52610  0.52610  0.03650  Biso   1.000  C
  C43      1.0000 0.52610  0.91130  0.03650  Biso   1.000  C
  C44      1.0000 0.10970  0.10970  0.39030  Biso   1.000  C
  C45      1.0000 0.05390  0.44610  0.44610  Biso   1.000  C
  C46      1.0000 0.55390  0.94610  0.55390  Biso   1.000  C
  C47      1.0000 0.44610  0.05390  0.05390  Biso   1.000  C
  C48      1.0000 0.94610  0.55390  0.55390  Biso   1.000  C
  C49      1.0000 0.94610  0.55390  0.94610  Biso   1.000  C
  C50      1.0000 0.39030  0.39030  0.10970  Biso   1.000  C
  C51      1.0000 0.03650  0.52610  0.52610  Biso   1.000  C
  C52      1.0000 0.08870  0.47390  0.96350  Biso   1.000  C
  C53      1.0000 0.47390  0.96350  0.47390  Biso   1.000  C
  C54      1.0000 0.47390  0.47390  0.96350  Biso   1.000  C
  C55      1.0000 0.60970  0.89030  0.60970  Biso   1.000  C
  C56      1.0000 0.94610  0.94610  0.55390  Biso   1.000  C
  C57      1.0000 0.05390  0.05390  0.44610  Biso   1.000  C
  C58      1.0000 0.39030  0.10970  0.10970  Biso   1.000  C
  C59      1.0000 0.03650  0.52610  0.91130  Biso   1.000  C
  C60      1.0000 0.44610  0.44610  0.05390  Biso   1.000  C
  C61      1.0000 0.10970  0.39030  0.39030  Biso   1.000  C
  C62      1.0000 0.89030  0.89030  0.60970  Biso   1.000  C
  C63      1.0000 0.60970  0.89030  0.89030  Biso   1.000  C
  C64      1.0000 0.96350  0.47390  0.47390  Biso   1.000  C
  C65      1.0000 0.89030  0.60970  0.89030  Biso   1.000  C
  C66      1.0000 0.08870  0.47390  0.47390  Biso   1.000  C
  C67      1.0000 0.91130  0.52610  0.52610  Biso   1.000  C
  C68      1.0000 0.47390  0.08870  0.47390  Biso   1.000  C
  C69      1.0000 0.47390  0.08870  0.96350  Biso   1.000  C
  C70      1.0000 0.08870  0.96350  0.47390  Biso   1.000  C
  C71      1.0000 0.10970  0.39030  0.10970  Biso   1.000  C
  C72      1.0000 0.96350  0.47390  0.08870  Biso   1.000  C
  C73      1.0000 0.52610  0.52610  0.91130  Biso   1.000  C
  C74      1.0000 0.60970  0.60970  0.89030  Biso   1.000  C
  C75      1.0000 0.52610  0.91130  0.52610  Biso   1.000  C
  C76      1.0000 0.91130  0.03650  0.52610  Biso   1.000  C
  C77      1.0000 0.52610  0.03650  0.91130  Biso   1.000  C
  C78      1.0000 0.05390  0.44610  0.05390  Biso   1.000  C
  C79      1.0000 0.55390  0.94610  0.94610  Biso   1.000  C
  C80      1.0000 0.52610  0.03650  0.52610  Biso   1.000  C
  C81      1.0000 0.63380  0.80300  0.92940  Biso   1.000  C
  C82      1.0000 0.07060  0.19700  0.36620  Biso   1.000  C
  C83      1.0000 0.80300  0.63380  0.63380  Biso   1.000  C
  C84      1.0000 0.80300  0.92940  0.63380  Biso   1.000  C
  C85      1.0000 0.36620  0.07060  0.19700  Biso   1.000  C
  C86      1.0000 0.07060  0.36620  0.19700  Biso   1.000  C
  C87      1.0000 0.63380  0.92940  0.63380  Biso   1.000  C
  C88      1.0000 0.63380  0.80300  0.63380  Biso   1.000  C
  C89      1.0000 0.36620  0.36620  0.19700  Biso   1.000  C
  C90      1.0000 0.36620  0.07060  0.36620  Biso   1.000  C
  C91      1.0000 0.75000  0.75000  0.75000  Biso   1.000  C
  C92      1.0000 0.80300  0.63380  0.92940  Biso   1.000  C
  C93      1.0000 0.92940  0.80300  0.63380  Biso   1.000  C
  C94      1.0000 0.36620  0.19700  0.36620  Biso   1.000  C
  C95      1.0000 0.63380  0.63380  0.80300  Biso   1.000  C
  C96      1.0000 0.19700  0.36620  0.07060  Biso   1.000  C
  C97      1.0000 0.63380  0.63380  0.92940  Biso   1.000  C
  C98      1.0000 0.36620  0.36620  0.07060  Biso   1.000  C
  C99      1.0000 0.63380  0.92940  0.80300  Biso   1.000  C
  C100     1.0000 0.19700  0.07060  0.36620  Biso   1.000  C
  C101     1.0000 0.36620  0.19700  0.07060  Biso   1.000  C
  C102     1.0000 0.92940  0.63380  0.80300  Biso   1.000  C
  C103     1.0000 0.25000  0.25000  0.25000  Biso   1.000  C
  C104     1.0000 0.19700  0.36620  0.36620  Biso   1.000  C
  C105     1.0000 0.92940  0.63380  0.63380  Biso   1.000  C
  C106     1.0000 0.07060  0.36620  0.36620  Biso   1.000  C
  O1       1.0000 0.47792  0.34577  0.67114  Biso   1.000  O
  O2       1.0000 0.65212  0.34578  0.49694  Biso   1.000  O
  O3       1.0000 0.47792  0.34577  0.49695  Biso   1.000  O
  O4       1.0000 0.47793  0.51997  0.49694  Biso   1.000  O
  O5       1.0000 0.06386  0.93326  0.91024  Biso   1.000  O
  O6       1.0000 0.88966  0.93326  0.08443  Biso   1.000  O
  O7       1.0000 0.06386  0.75907  0.08443  Biso   1.000  O
  O8       1.0000 0.06385  0.93326  0.08444  Biso   1.000  O
  O9       1.0000 0.61892  0.18359  0.85453  Biso   1.000  O
  O10      1.0000 0.83473  0.18359  0.63872  Biso   1.000  O
  O11      1.0000 0.31496  0.48755  0.33476  Biso   1.000  O
  O12      1.0000 0.31496  0.70336  0.33476  Biso   1.000  O
  O13      1.0000 0.31496  0.70336  0.63872  Biso   1.000  O
  O14      1.0000 0.31496  0.48755  0.85453  Biso   1.000  O
  O15      1.0000 0.61892  0.18359  0.33476  Biso   1.000  O
  O16      1.0000 0.83473  0.18359  0.33476  Biso   1.000  O
  O17      1.0000 0.83473  0.48755  0.33476  Biso   1.000  O
  O18      1.0000 0.61892  0.70336  0.33476  Biso   1.000  O
  O19      1.0000 0.31496  0.18359  0.63872  Biso   1.000  O
  O20      1.0000 0.31496  0.18359  0.85453  Biso   1.000  O
  O21      1.0000 0.92286  0.09546  0.72685  Biso   1.000  O
  O22      1.0000 0.70705  0.09546  0.94266  Biso   1.000  O
  O23      1.0000 0.22683  0.57568  0.24663  Biso   1.000  O
  O24      1.0000 0.22683  0.79149  0.24663  Biso   1.000  O
  O25      1.0000 0.22683  0.09546  0.94266  Biso   1.000  O
  O26      1.0000 0.22683  0.09546  0.72685  Biso   1.000  O
  O27      1.0000 0.92286  0.57568  0.24663  Biso   1.000  O
  O28      1.0000 0.70705  0.79149  0.24663  Biso   1.000  O
  O29      1.0000 0.70705  0.09546  0.24663  Biso   1.000  O
  O30      1.0000 0.92286  0.09546  0.24663  Biso   1.000  O
  O31      1.0000 0.22683  0.57568  0.94266  Biso   1.000  O
  O32      1.0000 0.22683  0.79149  0.72685  Biso   1.000  O
  O33      1.0000 0.68103  0.16590  0.82779  Biso   1.000  O
  O34      1.0000 0.80799  0.16590  0.70083  Biso   1.000  O
  O35      1.0000 0.29727  0.54966  0.31707  Biso   1.000  O
  O36      1.0000 0.29727  0.67662  0.31707  Biso   1.000  O
  O37      1.0000 0.29727  0.67662  0.70083  Biso   1.000  O
  O38      1.0000 0.29727  0.54966  0.82779  Biso   1.000  O
  O39      1.0000 0.68103  0.16590  0.31707  Biso   1.000  O
  O40      1.0000 0.80799  0.16590  0.31707  Biso   1.000  O
  O41      1.0000 0.80799  0.54966  0.31707  Biso   1.000  O
  O42      1.0000 0.68103  0.67662  0.31707  Biso   1.000  O
  O43      1.0000 0.29727  0.16590  0.70083  Biso   1.000  O
  O44      1.0000 0.29727  0.16590  0.82779  Biso   1.000  O
  O45      1.0000 0.86075  0.11314  0.75359  Biso   1.000  O
  O46      1.0000 0.73379  0.11314  0.88055  Biso   1.000  O
  O47      1.0000 0.24451  0.60242  0.26431  Biso   1.000  O
  O48      1.0000 0.24451  0.72938  0.26431  Biso   1.000  O
  O49      1.0000 0.24451  0.11314  0.88055  Biso   1.000  O
  O50      1.0000 0.24451  0.11314  0.75359  Biso   1.000  O
  O51      1.0000 0.86075  0.60242  0.26431  Biso   1.000  O
  O52      1.0000 0.73379  0.72938  0.26431  Biso   1.000  O
  O53      1.0000 0.73379  0.11314  0.26431  Biso   1.000  O
  O54      1.0000 0.86075  0.11314  0.26431  Biso   1.000  O
  O55      1.0000 0.24451  0.60242  0.88055  Biso   1.000  O
  O56      1.0000 0.24451  0.72938  0.75359  Biso   1.000  O
  O57      1.0000 0.65997  0.25083  0.67899  Biso   1.000  O
  O58      1.0000 0.71772  0.19308  0.73674  Biso   1.000  O
  O59      1.0000 0.38298  0.52782  0.40200  Biso   1.000  O
  O60      1.0000 0.32523  0.58557  0.34425  Biso   1.000  O
  O61      1.0000 0.38298  0.52782  0.67899  Biso   1.000  O
  O62      1.0000 0.32523  0.58557  0.73674  Biso   1.000  O
  O63      1.0000 0.65997  0.25083  0.40200  Biso   1.000  O
  O64      1.0000 0.71772  0.19308  0.34425  Biso   1.000  O
  O65      1.0000 0.65997  0.52782  0.40200  Biso   1.000  O
  O66      1.0000 0.71772  0.58557  0.34425  Biso   1.000  O
  O67      1.0000 0.38298  0.25083  0.67899  Biso   1.000  O
  O68      1.0000 0.32523  0.19308  0.73674  Biso   1.000  O
  O69      1.0000 0.88182  0.02821  0.90239  Biso   1.000  O
  O70      1.0000 0.82406  0.08596  0.84464  Biso   1.000  O
  O71      1.0000 0.15880  0.75122  0.17938  Biso   1.000  O
  O72      1.0000 0.21656  0.69347  0.23713  Biso   1.000  O
  O73      1.0000 0.15880  0.02821  0.90239  Biso   1.000  O
  O74      1.0000 0.21656  0.08596  0.84464  Biso   1.000  O
  O75      1.0000 0.88182  0.75122  0.17938  Biso   1.000  O
  O76      1.0000 0.82406  0.69347  0.23713  Biso   1.000  O
  O77      1.0000 0.88182  0.02821  0.17938  Biso   1.000  O
  O78      1.0000 0.82406  0.08596  0.23713  Biso   1.000  O
  O79      1.0000 0.15880  0.75122  0.90239  Biso   1.000  O
  O80      1.0000 0.21656  0.69347  0.84464  Biso   1.000  O
  O81      1.0000 0.52148  0.38933  0.54050  Biso   1.000  O
  O82      1.0000 0.02031  0.88972  0.04089  Biso   1.000  O
  O83      1.0000 0.57691  0.27338  0.71696  Biso   1.000  O
  O84      1.0000 0.69794  0.27338  0.59593  Biso   1.000  O
  O85      1.0000 0.40553  0.44476  0.42455  Biso   1.000  O
  O86      1.0000 0.40553  0.56579  0.42455  Biso   1.000  O
  O87      1.0000 0.40553  0.56579  0.59593  Biso   1.000  O
  O88      1.0000 0.40553  0.44476  0.71696  Biso   1.000  O
  O89      1.0000 0.57691  0.27338  0.42455  Biso   1.000  O
  O90      1.0000 0.69794  0.27338  0.42455  Biso   1.000  O
  O91      1.0000 0.69794  0.44476  0.42455  Biso   1.000  O
  O92      1.0000 0.57691  0.56579  0.42455  Biso   1.000  O
  O93      1.0000 0.40553  0.27338  0.59593  Biso   1.000  O
  O94      1.0000 0.40553  0.27338  0.71696  Biso   1.000  O
  O95      1.0000 0.96487  0.00567  0.86442  Biso   1.000  O
  O96      1.0000 0.84385  0.00567  0.98545  Biso   1.000  O
  O97      1.0000 0.13626  0.71325  0.15684  Biso   1.000  O
  O98      1.0000 0.13626  0.83428  0.15684  Biso   1.000  O
  O99      1.0000 0.13626  0.00567  0.98545  Biso   1.000  O
  O100     1.0000 0.13626  0.00567  0.86442  Biso   1.000  O
  O101     1.0000 0.96487  0.71325  0.15684  Biso   1.000  O
  O102     1.0000 0.84385  0.83428  0.15684  Biso   1.000  O
  O103     1.0000 0.84385  0.00567  0.15684  Biso   1.000  O
  O104     1.0000 0.96487  0.00567  0.15684  Biso   1.000  O
  O105     1.0000 0.13626  0.71325  0.98545  Biso   1.000  O
