data_image0
_cell_length_a       18.2486
_cell_length_b       18.2486
_cell_length_c       18.2486
_cell_angle_alpha    60
_cell_angle_beta     60
_cell_angle_gamma    60

_symmetry_space_group_name_H-M    "P 1"
_symmetry_int_tables_number       1

loop_
  _symmetry_equiv_pos_as_xyz
  'x, y, z'

loop_
  _atom_site_label
  _atom_site_occupancy
  _atom_site_fract_x
  _atom_site_fract_y
  _atom_site_fract_z
  _atom_site_thermal_displace_type
  _atom_site_B_iso_or_equiv
  _atom_site_type_symbol
  Zn1      1.0000 0.11962  0.29346  0.29346  Biso   1.000  Zn
  Zn2      1.0000 0.70654  0.88038  0.70654  Biso   1.000  Zn
  Zn3      1.0000 0.29346  0.29346  0.11962  Biso   1.000  Zn
  Zn4      1.0000 0.29346  0.29346  0.29346  Biso   1.000  Zn
  Zn5      1.0000 0.88038  0.70654  0.70654  Biso   1.000  Zn
  Zn6      1.0000 0.29346  0.11962  0.29346  Biso   1.000  Zn
  Zn7      1.0000 0.70654  0.70654  0.88038  Biso   1.000  Zn
  Zn8      1.0000 0.70654  0.70654  0.70654  Biso   1.000  Zn
  H1       1.0000 0.15060  0.45640  0.45640  Biso   1.000  H
  H2       1.0000 0.84940  0.54360  0.06340  Biso   1.000  H
  H3       1.0000 0.45640  0.93660  0.45640  Biso   1.000  H
  H4       1.0000 0.54360  0.84940  0.06340  Biso   1.000  H
  H5       1.0000 0.84940  0.54360  0.54360  Biso   1.000  H
  H6       1.0000 0.45640  0.15060  0.93660  Biso   1.000  H
  H7       1.0000 0.45640  0.93660  0.15060  Biso   1.000  H
  H8       1.0000 0.06340  0.54360  0.54360  Biso   1.000  H
  H9       1.0000 0.45640  0.15060  0.45640  Biso   1.000  H
  H10      1.0000 0.93660  0.45640  0.45640  Biso   1.000  H
  H11      1.0000 0.93660  0.15060  0.45640  Biso   1.000  H
  H12      1.0000 0.45640  0.45640  0.15060  Biso   1.000  H
  H13      1.0000 0.06340  0.84940  0.54360  Biso   1.000  H
  H14      1.0000 0.06340  0.54360  0.84940  Biso   1.000  H
  H15      1.0000 0.54360  0.06340  0.84940  Biso   1.000  H
  H16      1.0000 0.54360  0.84940  0.54360  Biso   1.000  H
  H17      1.0000 0.15060  0.93660  0.45640  Biso   1.000  H
  H18      1.0000 0.54360  0.06340  0.54360  Biso   1.000  H
  H19      1.0000 0.93660  0.45640  0.15060  Biso   1.000  H
  H20      1.0000 0.84940  0.06340  0.54360  Biso   1.000  H
  H21      1.0000 0.45640  0.45640  0.93660  Biso   1.000  H
  H22      1.0000 0.54360  0.54360  0.06340  Biso   1.000  H
  H23      1.0000 0.15060  0.45640  0.93660  Biso   1.000  H
  H24      1.0000 0.54360  0.54360  0.84940  Biso   1.000  H
  C1       1.0000 0.89030  0.60970  0.60970  Biso   1.000  C
  C2       1.0000 0.55390  0.55390  0.94610  Biso   1.000  C
  C3       1.0000 0.03650  0.91130  0.52610  Biso   1.000  C
  C4       1.0000 0.47390  0.96350  0.08870  Biso   1.000  C
  C5       1.0000 0.91130  0.52610  0.03650  Biso   1.000  C
  C6       1.0000 0.47390  0.47390  0.08870  Biso   1.000  C
  C7       1.0000 0.96350  0.08870  0.47390  Biso   1.000  C
  C8       1.0000 0.39030  0.10970  0.39030  Biso   1.000  C
  C9       1.0000 0.44610  0.05390  0.44610  Biso   1.000  C
  C10      1.0000 0.52610  0.52610  0.03650  Biso   1.000  C
  C11      1.0000 0.52610  0.91130  0.03650  Biso   1.000  C
  C12      1.0000 0.10970  0.10970  0.39030  Biso   1.000  C
  C13      1.0000 0.05390  0.44610  0.44610  Biso   1.000  C
  C14      1.0000 0.55390  0.94610  0.55390  Biso   1.000  C
  C15      1.0000 0.44610  0.05390  0.05390  Biso   1.000  C
  C16      1.0000 0.94610  0.55390  0.55390  Biso   1.000  C
  C17      1.0000 0.94610  0.55390  0.94610  Biso   1.000  C
  C18      1.0000 0.39030  0.39030  0.10970  Biso   1.000  C
  C19      1.0000 0.03650  0.52610  0.52610  Biso   1.000  C
  C20      1.0000 0.08870  0.47390  0.96350  Biso   1.000  C
  C21      1.0000 0.47390  0.96350  0.47390  Biso   1.000  C
  C22      1.0000 0.47390  0.47390  0.96350  Biso   1.000  C
  C23      1.0000 0.60970  0.89030  0.60970  Biso   1.000  C
  C24      1.0000 0.94610  0.94610  0.55390  Biso   1.000  C
  C25      1.0000 0.05390  0.05390  0.44610  Biso   1.000  C
  C26      1.0000 0.39030  0.10970  0.10970  Biso   1.000  C
  C27      1.0000 0.03650  0.52610  0.91130  Biso   1.000  C
  C28      1.0000 0.44610  0.44610  0.05390  Biso   1.000  C
  C29      1.0000 0.10970  0.39030  0.39030  Biso   1.000  C
  C30      1.0000 0.89030  0.89030  0.60970  Biso   1.000  C
  C31      1.0000 0.60970  0.89030  0.89030  Biso   1.000  C
  C32      1.0000 0.96350  0.47390  0.47390  Biso   1.000  C
  C33      1.0000 0.89030  0.60970  0.89030  Biso   1.000  C
  C34      1.0000 0.08870  0.47390  0.47390  Biso   1.000  C
  C35      1.0000 0.91130  0.52610  0.52610  Biso   1.000  C
  C36      1.0000 0.47390  0.08870  0.47390  Biso   1.000  C
  C37      1.0000 0.47390  0.08870  0.96350  Biso   1.000  C
  C38      1.0000 0.08870  0.96350  0.47390  Biso   1.000  C
  C39      1.0000 0.10970  0.39030  0.10970  Biso   1.000  C
  C40      1.0000 0.96350  0.47390  0.08870  Biso   1.000  C
  C41      1.0000 0.52610  0.52610  0.91130  Biso   1.000  C
  C42      1.0000 0.60970  0.60970  0.89030  Biso   1.000  C
  C43      1.0000 0.52610  0.91130  0.52610  Biso   1.000  C
  C44      1.0000 0.91130  0.03650  0.52610  Biso   1.000  C
  C45      1.0000 0.52610  0.03650  0.91130  Biso   1.000  C
  C46      1.0000 0.05390  0.44610  0.05390  Biso   1.000  C
  C47      1.0000 0.55390  0.94610  0.94610  Biso   1.000  C
  C48      1.0000 0.52610  0.03650  0.52610  Biso   1.000  C
  O1       1.0000 0.63380  0.80300  0.92940  Biso   1.000  O
  O2       1.0000 0.07060  0.19700  0.36620  Biso   1.000  O
  O3       1.0000 0.80300  0.63380  0.63380  Biso   1.000  O
  O4       1.0000 0.80300  0.92940  0.63380  Biso   1.000  O
  O5       1.0000 0.36620  0.07060  0.19700  Biso   1.000  O
  O6       1.0000 0.07060  0.36620  0.19700  Biso   1.000  O
  O7       1.0000 0.63380  0.92940  0.63380  Biso   1.000  O
  O8       1.0000 0.63380  0.80300  0.63380  Biso   1.000  O
  O9       1.0000 0.36620  0.36620  0.19700  Biso   1.000  O
  O10      1.0000 0.36620  0.07060  0.36620  Biso   1.000  O
  O11      1.0000 0.75000  0.75000  0.75000  Biso   1.000  O
  O12      1.0000 0.80300  0.63380  0.92940  Biso   1.000  O
  O13      1.0000 0.92940  0.80300  0.63380  Biso   1.000  O
  O14      1.0000 0.36620  0.19700  0.36620  Biso   1.000  O
  O15      1.0000 0.63380  0.63380  0.80300  Biso   1.000  O
  O16      1.0000 0.19700  0.36620  0.07060  Biso   1.000  O
  O17      1.0000 0.63380  0.63380  0.92940  Biso   1.000  O
  O18      1.0000 0.36620  0.36620  0.07060  Biso   1.000  O
  O19      1.0000 0.63380  0.92940  0.80300  Biso   1.000  O
  O20      1.0000 0.19700  0.07060  0.36620  Biso   1.000  O
  O21      1.0000 0.36620  0.19700  0.07060  Biso   1.000  O
  O22      1.0000 0.92940  0.63380  0.80300  Biso   1.000  O
  O23      1.0000 0.25000  0.25000  0.25000  Biso   1.000  O
  O24      1.0000 0.19700  0.36620  0.36620  Biso   1.000  O
  O25      1.0000 0.92940  0.63380  0.63380  Biso   1.000  O
  O26      1.0000 0.07060  0.36620  0.36620  Biso   1.000  O
  Zn9      1.0000 0.94883  0.88905  0.93960  Biso   1.000  Zn
  Zn10     1.0000 0.53145  0.47947  0.53200  Biso   1.000  Zn
  Zn11     1.0000 0.94836  0.06368  0.94029  Biso   1.000  Zn
  Zn12     1.0000 0.94850  0.88929  0.11438  Biso   1.000  Zn
  Zn13     1.0000 0.12288  0.88973  0.94029  Biso   1.000  Zn
  Zn14     1.0000 0.35740  0.47879  0.53131  Biso   1.000  Zn
  Zn15     1.0000 0.53178  0.47922  0.35722  Biso   1.000  Zn
  Zn16     1.0000 0.53192  0.30484  0.53131  Biso   1.000  Zn
  H25      1.0000 0.78174  0.02651  0.30161  Biso   1.000  H
  H26      1.0000 0.30964  0.72407  0.07808  Biso   1.000  H
  H27      1.0000 0.08530  0.25116  0.77484  Biso   1.000  H
  H28      1.0000 0.39454  0.64500  0.16999  Biso   1.000  H
  H29      1.0000 0.69873  0.11811  0.39352  Biso   1.000  H
  H30      1.0000 0.17090  0.34069  0.69676  Biso   1.000  H
  H31      1.0000 0.69854  0.34201  0.16999  Biso   1.000  H
  H32      1.0000 0.17064  0.64444  0.39352  Biso   1.000  H
  H33      1.0000 0.39498  0.11735  0.69676  Biso   1.000  H
  H34      1.0000 0.08574  0.72351  0.30161  Biso   1.000  H
  H35      1.0000 0.78155  0.25041  0.07808  Biso   1.000  H
  H36      1.0000 0.30938  0.02782  0.77484  Biso   1.000  H
  H37      1.0000 0.78954  0.24440  0.78109  Biso   1.000  H
  H38      1.0000 0.78388  0.02883  0.77393  Biso   1.000  H
  H39      1.0000 0.78997  0.72977  0.29486  Biso   1.000  H
  H40      1.0000 0.78414  0.72316  0.07909  Biso   1.000  H
  H41      1.0000 0.30459  0.73106  0.78109  Biso   1.000  H
  H42      1.0000 0.08980  0.72393  0.77393  Biso   1.000  H
  H43      1.0000 0.17569  0.63746  0.69051  Biso   1.000  H
  H44      1.0000 0.39048  0.64459  0.69767  Biso   1.000  H
  H45      1.0000 0.69031  0.63874  0.17674  Biso   1.000  H
  H46      1.0000 0.69615  0.64535  0.39251  Biso   1.000  H
  H47      1.0000 0.69074  0.12411  0.69051  Biso   1.000  H
  H48      1.0000 0.69640  0.33968  0.69767  Biso   1.000  H
  C49      1.0000 0.76653  0.08860  0.27480  Biso   1.000  C
  C50      1.0000 0.28268  0.70891  0.14016  Biso   1.000  C
  C51      1.0000 0.14739  0.22442  0.75982  Biso   1.000  C
  C52      1.0000 0.33246  0.65994  0.19680  Biso   1.000  C
  C53      1.0000 0.71386  0.14505  0.33144  Biso   1.000  C
  C54      1.0000 0.19792  0.27863  0.71178  Biso   1.000  C
  C55      1.0000 0.71375  0.27991  0.19680  Biso   1.000  C
  C56      1.0000 0.19760  0.65960  0.33144  Biso   1.000  C
  C57      1.0000 0.33289  0.14410  0.71178  Biso   1.000  C
  C58      1.0000 0.14782  0.70858  0.27480  Biso   1.000  C
  C59      1.0000 0.76642  0.22347  0.14016  Biso   1.000  C
  C60      1.0000 0.28236  0.08989  0.75982  Biso   1.000  C
  C61      1.0000 0.85302  0.07457  0.84407  Biso   1.000  C
  C62      1.0000 0.79539  0.12899  0.78623  Biso   1.000  C
  C63      1.0000 0.77034  0.22099  0.76154  Biso   1.000  C
  C64      1.0000 0.76701  0.09080  0.75730  Biso   1.000  C
  C65      1.0000 0.85326  0.79313  0.12505  Biso   1.000  C
  C66      1.0000 0.79572  0.73520  0.17936  Biso   1.000  C
  C67      1.0000 0.77076  0.71030  0.27138  Biso   1.000  C
  C68      1.0000 0.76733  0.70639  0.14107  Biso   1.000  C
  C69      1.0000 0.13470  0.79384  0.84407  Biso   1.000  C
  C70      1.0000 0.18951  0.73618  0.78623  Biso   1.000  C
  C71      1.0000 0.28145  0.71157  0.76154  Biso   1.000  C
  C72      1.0000 0.15173  0.70735  0.75730  Biso   1.000  C
  C73      1.0000 0.34559  0.57468  0.62753  Biso   1.000  C
  C74      1.0000 0.29077  0.63233  0.68537  Biso   1.000  C
  C75      1.0000 0.19883  0.65694  0.71006  Biso   1.000  C
  C76      1.0000 0.32855  0.66116  0.71430  Biso   1.000  C
  C77      1.0000 0.62702  0.57538  0.34656  Biso   1.000  C
  C78      1.0000 0.68456  0.63332  0.29224  Biso   1.000  C
  C79      1.0000 0.70952  0.65822  0.20023  Biso   1.000  C
  C80      1.0000 0.71295  0.66212  0.33053  Biso   1.000  C
  C81      1.0000 0.62726  0.29394  0.62753  Biso   1.000  C
  C82      1.0000 0.68489  0.23952  0.68537  Biso   1.000  C
  C83      1.0000 0.70994  0.14753  0.71006  Biso   1.000  C
  C84      1.0000 0.71327  0.27771  0.71430  Biso   1.000  C
  C85      1.0000 0.85181  0.07317  0.12434  Biso   1.000  C
  C86      1.0000 0.79916  0.12645  0.17780  Biso   1.000  C
  C87      1.0000 0.13237  0.79354  0.12434  Biso   1.000  C
  C88      1.0000 0.18565  0.74124  0.17780  Biso   1.000  C
  C89      1.0000 0.13214  0.07387  0.84448  Biso   1.000  C
  C90      1.0000 0.18533  0.12742  0.79227  Biso   1.000  C
  C91      1.0000 0.34791  0.57498  0.34726  Biso   1.000  C
  C92      1.0000 0.29463  0.62727  0.29380  Biso   1.000  C
  C93      1.0000 0.62847  0.29535  0.34726  Biso   1.000  C
  C94      1.0000 0.68112  0.24206  0.29380  Biso   1.000  C
  C95      1.0000 0.34814  0.29465  0.62712  Biso   1.000  C
  C96      1.0000 0.29495  0.24110  0.67933  Biso   1.000  C
  O27      1.0000 0.87575  0.11185  0.03544  Biso   1.000  O
  O28      1.0000 0.04346  0.81720  0.16283  Biso   1.000  O
  O29      1.0000 0.17092  0.98498  0.86825  Biso   1.000  O
  O30      1.0000 0.30922  0.55100  0.43616  Biso   1.000  O
  O31      1.0000 0.60443  0.38427  0.30877  Biso   1.000  O
  O32      1.0000 0.43707  0.25625  0.60335  Biso   1.000  O
  O33      1.0000 0.60453  0.25667  0.43616  Biso   1.000  O
  O34      1.0000 0.43682  0.55132  0.30877  Biso   1.000  O
  O35      1.0000 0.30936  0.38353  0.60335  Biso   1.000  O
  O36      1.0000 0.17106  0.81751  0.03544  Biso   1.000  O
  O37      1.0000 0.87585  0.98425  0.16283  Biso   1.000  O
  O38      1.0000 0.04321  0.11226  0.86825  Biso   1.000  O
  O39      1.0000 0.99387  0.93469  0.98540  Biso   1.000  O
  O40      1.0000 0.48641  0.43383  0.48621  Biso   1.000  O
  O41      1.0000 0.87636  0.98600  0.86705  Biso   1.000  O
  O42      1.0000 0.87522  0.11288  0.86675  Biso   1.000  O
  O43      1.0000 0.87650  0.81631  0.03646  Biso   1.000  O
  O44      1.0000 0.87547  0.81569  0.16344  Biso   1.000  O
  O45      1.0000 0.04619  0.81674  0.86705  Biso   1.000  O
  O46      1.0000 0.17265  0.81644  0.86675  Biso   1.000  O
  O47      1.0000 0.43409  0.55178  0.60455  Biso   1.000  O
  O48      1.0000 0.30763  0.55208  0.60485  Biso   1.000  O
  O49      1.0000 0.60378  0.55220  0.43514  Biso   1.000  O
  O50      1.0000 0.60481  0.55282  0.30816  Biso   1.000  O
  O51      1.0000 0.60392  0.38251  0.60455  Biso   1.000  O
