data_image0
_cell_length_a       18.2486
_cell_length_b       18.2486
_cell_length_c       18.2486
_cell_angle_alpha    60
_cell_angle_beta     60
_cell_angle_gamma    60

_symmetry_space_group_name_H-M    "P 1"
_symmetry_int_tables_number       1

loop_
  _symmetry_equiv_pos_as_xyz
  'x, y, z'

loop_
  _atom_site_label
  _atom_site_occupancy
  _atom_site_fract_x
  _atom_site_fract_y
  _atom_site_fract_z
  _atom_site_thermal_displace_type
  _atom_site_B_iso_or_equiv
  _atom_site_type_symbol
  Zn1      1.0000 0.11962  0.29346  0.29346  Biso   1.000  Zn
  Zn2      1.0000 0.70654  0.88038  0.70654  Biso   1.000  Zn
  Zn3      1.0000 0.29346  0.29346  0.11962  Biso   1.000  Zn
  Zn4      1.0000 0.29346  0.29346  0.29346  Biso   1.000  Zn
  Zn5      1.0000 0.88038  0.70654  0.70654  Biso   1.000  Zn
  Zn6      1.0000 0.29346  0.11962  0.29346  Biso   1.000  Zn
  Zn7      1.0000 0.70654  0.70654  0.88038  Biso   1.000  Zn
  Zn8      1.0000 0.70654  0.70654  0.70654  Biso   1.000  Zn
  H1       1.0000 0.15060  0.45640  0.45640  Biso   1.000  H
  H2       1.0000 0.84940  0.54360  0.06340  Biso   1.000  H
  H3       1.0000 0.45640  0.93660  0.45640  Biso   1.000  H
  H4       1.0000 0.54360  0.84940  0.06340  Biso   1.000  H
  H5       1.0000 0.84940  0.54360  0.54360  Biso   1.000  H
  H6       1.0000 0.45640  0.15060  0.93660  Biso   1.000  H
  H7       1.0000 0.45640  0.93660  0.15060  Biso   1.000  H
  H8       1.0000 0.06340  0.54360  0.54360  Biso   1.000  H
  H9       1.0000 0.45640  0.15060  0.45640  Biso   1.000  H
  H10      1.0000 0.93660  0.45640  0.45640  Biso   1.000  H
  H11      1.0000 0.93660  0.15060  0.45640  Biso   1.000  H
  H12      1.0000 0.45640  0.45640  0.15060  Biso   1.000  H
  H13      1.0000 0.06340  0.84940  0.54360  Biso   1.000  H
  H14      1.0000 0.06340  0.54360  0.84940  Biso   1.000  H
  H15      1.0000 0.54360  0.06340  0.84940  Biso   1.000  H
  H16      1.0000 0.54360  0.84940  0.54360  Biso   1.000  H
  H17      1.0000 0.15060  0.93660  0.45640  Biso   1.000  H
  H18      1.0000 0.54360  0.06340  0.54360  Biso   1.000  H
  H19      1.0000 0.93660  0.45640  0.15060  Biso   1.000  H
  H20      1.0000 0.84940  0.06340  0.54360  Biso   1.000  H
  H21      1.0000 0.45640  0.45640  0.93660  Biso   1.000  H
  H22      1.0000 0.54360  0.54360  0.06340  Biso   1.000  H
  H23      1.0000 0.15060  0.45640  0.93660  Biso   1.000  H
  H24      1.0000 0.54360  0.54360  0.84940  Biso   1.000  H
  C1       1.0000 0.89030  0.60970  0.60970  Biso   1.000  C
  C2       1.0000 0.55390  0.55390  0.94610  Biso   1.000  C
  C3       1.0000 0.03650  0.91130  0.52610  Biso   1.000  C
  C4       1.0000 0.47390  0.96350  0.08870  Biso   1.000  C
  C5       1.0000 0.91130  0.52610  0.03650  Biso   1.000  C
  C6       1.0000 0.47390  0.47390  0.08870  Biso   1.000  C
  C7       1.0000 0.96350  0.08870  0.47390  Biso   1.000  C
  C8       1.0000 0.39030  0.10970  0.39030  Biso   1.000  C
  C9       1.0000 0.44610  0.05390  0.44610  Biso   1.000  C
  C10      1.0000 0.52610  0.52610  0.03650  Biso   1.000  C
  C11      1.0000 0.52610  0.91130  0.03650  Biso   1.000  C
  C12      1.0000 0.10970  0.10970  0.39030  Biso   1.000  C
  C13      1.0000 0.05390  0.44610  0.44610  Biso   1.000  C
  C14      1.0000 0.55390  0.94610  0.55390  Biso   1.000  C
  C15      1.0000 0.44610  0.05390  0.05390  Biso   1.000  C
  C16      1.0000 0.94610  0.55390  0.55390  Biso   1.000  C
  C17      1.0000 0.94610  0.55390  0.94610  Biso   1.000  C
  C18      1.0000 0.39030  0.39030  0.10970  Biso   1.000  C
  C19      1.0000 0.03650  0.52610  0.52610  Biso   1.000  C
  C20      1.0000 0.08870  0.47390  0.96350  Biso   1.000  C
  C21      1.0000 0.47390  0.96350  0.47390  Biso   1.000  C
  C22      1.0000 0.47390  0.47390  0.96350  Biso   1.000  C
  C23      1.0000 0.60970  0.89030  0.60970  Biso   1.000  C
  C24      1.0000 0.94610  0.94610  0.55390  Biso   1.000  C
  C25      1.0000 0.05390  0.05390  0.44610  Biso   1.000  C
  C26      1.0000 0.39030  0.10970  0.10970  Biso   1.000  C
  C27      1.0000 0.03650  0.52610  0.91130  Biso   1.000  C
  C28      1.0000 0.44610  0.44610  0.05390  Biso   1.000  C
  C29      1.0000 0.10970  0.39030  0.39030  Biso   1.000  C
  C30      1.0000 0.89030  0.89030  0.60970  Biso   1.000  C
  C31      1.0000 0.60970  0.89030  0.89030  Biso   1.000  C
  C32      1.0000 0.96350  0.47390  0.47390  Biso   1.000  C
  C33      1.0000 0.89030  0.60970  0.89030  Biso   1.000  C
  C34      1.0000 0.08870  0.47390  0.47390  Biso   1.000  C
  C35      1.0000 0.91130  0.52610  0.52610  Biso   1.000  C
  C36      1.0000 0.47390  0.08870  0.47390  Biso   1.000  C
  C37      1.0000 0.47390  0.08870  0.96350  Biso   1.000  C
  C38      1.0000 0.08870  0.96350  0.47390  Biso   1.000  C
  C39      1.0000 0.10970  0.39030  0.10970  Biso   1.000  C
  C40      1.0000 0.96350  0.47390  0.08870  Biso   1.000  C
  C41      1.0000 0.52610  0.52610  0.91130  Biso   1.000  C
  C42      1.0000 0.60970  0.60970  0.89030  Biso   1.000  C
  C43      1.0000 0.52610  0.91130  0.52610  Biso   1.000  C
  C44      1.0000 0.91130  0.03650  0.52610  Biso   1.000  C
  C45      1.0000 0.52610  0.03650  0.91130  Biso   1.000  C
  C46      1.0000 0.05390  0.44610  0.05390  Biso   1.000  C
  C47      1.0000 0.55390  0.94610  0.94610  Biso   1.000  C
  C48      1.0000 0.52610  0.03650  0.52610  Biso   1.000  C
  O1       1.0000 0.63380  0.80300  0.92940  Biso   1.000  O
  O2       1.0000 0.07060  0.19700  0.36620  Biso   1.000  O
  O3       1.0000 0.80300  0.63380  0.63380  Biso   1.000  O
  O4       1.0000 0.80300  0.92940  0.63380  Biso   1.000  O
  O5       1.0000 0.36620  0.07060  0.19700  Biso   1.000  O
  O6       1.0000 0.07060  0.36620  0.19700  Biso   1.000  O
  O7       1.0000 0.63380  0.92940  0.63380  Biso   1.000  O
  O8       1.0000 0.63380  0.80300  0.63380  Biso   1.000  O
  O9       1.0000 0.36620  0.36620  0.19700  Biso   1.000  O
  O10      1.0000 0.36620  0.07060  0.36620  Biso   1.000  O
  O11      1.0000 0.75000  0.75000  0.75000  Biso   1.000  O
  O12      1.0000 0.80300  0.63380  0.92940  Biso   1.000  O
  O13      1.0000 0.92940  0.80300  0.63380  Biso   1.000  O
  O14      1.0000 0.36620  0.19700  0.36620  Biso   1.000  O
  O15      1.0000 0.63380  0.63380  0.80300  Biso   1.000  O
  O16      1.0000 0.19700  0.36620  0.07060  Biso   1.000  O
  O17      1.0000 0.63380  0.63380  0.92940  Biso   1.000  O
  O18      1.0000 0.36620  0.36620  0.07060  Biso   1.000  O
  O19      1.0000 0.63380  0.92940  0.80300  Biso   1.000  O
  O20      1.0000 0.19700  0.07060  0.36620  Biso   1.000  O
  O21      1.0000 0.36620  0.19700  0.07060  Biso   1.000  O
  O22      1.0000 0.92940  0.63380  0.80300  Biso   1.000  O
  O23      1.0000 0.25000  0.25000  0.25000  Biso   1.000  O
  O24      1.0000 0.19700  0.36620  0.36620  Biso   1.000  O
  O25      1.0000 0.92940  0.63380  0.63380  Biso   1.000  O
  O26      1.0000 0.07060  0.36620  0.36620  Biso   1.000  O
  Zn9      1.0000 0.68627  0.34961  0.46980  Biso   1.000  Zn
  Zn10     1.0000 0.09874  0.76207  0.05732  Biso   1.000  Zn
  Zn11     1.0000 0.92434  0.93646  0.05732  Biso   1.000  Zn
  Zn12     1.0000 0.51188  0.52400  0.46980  Biso   1.000  Zn
  Zn13     1.0000 0.51168  0.34941  0.64433  Biso   1.000  Zn
  Zn14     1.0000 0.51181  0.34954  0.46959  Biso   1.000  Zn
  Zn15     1.0000 0.09893  0.93666  0.88279  Biso   1.000  Zn
  Zn16     1.0000 0.09880  0.93653  0.05753  Biso   1.000  Zn
  H25      1.0000 0.34913  0.70676  0.61123  Biso   1.000  H
  H26      1.0000 0.34601  0.49080  0.82518  Biso   1.000  H
  H27      1.0000 0.35275  0.70478  0.30865  Biso   1.000  H
  H28      1.0000 0.35224  0.48962  0.30335  Biso   1.000  H
  H29      1.0000 0.86815  0.49022  0.31045  Biso   1.000  H
  H30      1.0000 0.74158  0.09922  0.91590  Biso   1.000  H
  H31      1.0000 0.95755  0.10233  0.70195  Biso   1.000  H
  H32      1.0000 0.74356  0.09560  0.21847  Biso   1.000  H
  H33      1.0000 0.95872  0.09610  0.22377  Biso   1.000  H
  H34      1.0000 0.95811  0.58019  0.21667  Biso   1.000  H
  H35      1.0000 0.26149  0.57931  0.91590  Biso   1.000  H
  H36      1.0000 0.26461  0.79527  0.70195  Biso   1.000  H
  H37      1.0000 0.25787  0.58129  0.21847  Biso   1.000  H
  H38      1.0000 0.25837  0.79645  0.22377  Biso   1.000  H
  H39      1.0000 0.74246  0.79585  0.21667  Biso   1.000  H
  H40      1.0000 0.86904  0.18685  0.61123  Biso   1.000  H
  H41      1.0000 0.65306  0.18374  0.82518  Biso   1.000  H
  H42      1.0000 0.86705  0.19047  0.30865  Biso   1.000  H
  H43      1.0000 0.65189  0.18997  0.30335  Biso   1.000  H
  H44      1.0000 0.65250  0.70588  0.31045  Biso   1.000  H
  H45      1.0000 0.35042  0.18815  0.61053  Biso   1.000  H
  H46      1.0000 0.34771  0.18544  0.82908  Biso   1.000  H
  H47      1.0000 0.26019  0.09792  0.91660  Biso   1.000  H
  H48      1.0000 0.26290  0.10063  0.69805  Biso   1.000  H
  C49      1.0000 0.41713  0.53371  0.64993  Biso   1.000  C
  C50      1.0000 0.35831  0.59072  0.71035  Biso   1.000  C
  C51      1.0000 0.33222  0.68025  0.67354  Biso   1.000  C
  C52      1.0000 0.33040  0.55301  0.79957  Biso   1.000  C
  C53      1.0000 0.41754  0.53253  0.37327  Biso   1.000  C
  C54      1.0000 0.36164  0.58824  0.31635  Biso   1.000  C
  C55      1.0000 0.33384  0.67907  0.29115  Biso   1.000  C
  C56      1.0000 0.33343  0.55164  0.28775  Biso   1.000  C
  C57      1.0000 0.84185  0.55234  0.29095  Biso   1.000  C
  C58      1.0000 0.91463  0.03121  0.87719  Biso   1.000  C
  C59      1.0000 0.85762  0.09002  0.81677  Biso   1.000  C
  C60      1.0000 0.76808  0.11613  0.85358  Biso   1.000  C
  C61      1.0000 0.89533  0.11793  0.72755  Biso   1.000  C
  C62      1.0000 0.91581  0.03079  0.15386  Biso   1.000  C
  C63      1.0000 0.86010  0.08670  0.21077  Biso   1.000  C
  C64      1.0000 0.76926  0.11450  0.23598  Biso   1.000  C
  C65      1.0000 0.89671  0.11490  0.23938  Biso   1.000  C
  C66      1.0000 0.89600  0.60650  0.23618  Biso   1.000  C
  C67      1.0000 0.19348  0.75236  0.87719  Biso   1.000  C
  C68      1.0000 0.25230  0.69535  0.81677  Biso   1.000  C
  C69      1.0000 0.27839  0.60582  0.85358  Biso   1.000  C
  C70      1.0000 0.28021  0.73306  0.72755  Biso   1.000  C
  C71      1.0000 0.19307  0.75354  0.15386  Biso   1.000  C
  C72      1.0000 0.24897  0.69783  0.21077  Biso   1.000  C
  C73      1.0000 0.27677  0.60700  0.23598  Biso   1.000  C
  C74      1.0000 0.27718  0.73443  0.23938  Biso   1.000  C
  C75      1.0000 0.76877  0.73373  0.23618  Biso   1.000  C
  C76      1.0000 0.69598  0.25486  0.64993  Biso   1.000  C
  C77      1.0000 0.75299  0.19605  0.71035  Biso   1.000  C
  C78      1.0000 0.84253  0.16994  0.67354  Biso   1.000  C
  C79      1.0000 0.71528  0.16814  0.79957  Biso   1.000  C
  C80      1.0000 0.69480  0.25528  0.37327  Biso   1.000  C
  C81      1.0000 0.75051  0.19937  0.31635  Biso   1.000  C
  C82      1.0000 0.84135  0.17156  0.29115  Biso   1.000  C
  C83      1.0000 0.71391  0.17116  0.28775  Biso   1.000  C
  C84      1.0000 0.71461  0.67957  0.29095  Biso   1.000  C
  C85      1.0000 0.41543  0.25316  0.65654  Biso   1.000  C
  C86      1.0000 0.35932  0.19705  0.70955  Biso   1.000  C
  C87      1.0000 0.33272  0.17044  0.67254  Biso   1.000  C
  C88      1.0000 0.33031  0.16804  0.80157  Biso   1.000  C
  C89      1.0000 0.69189  0.52963  0.37847  Biso   1.000  C
  C90      1.0000 0.75211  0.58984  0.31645  Biso   1.000  C
  C91      1.0000 0.19518  0.03291  0.87059  Biso   1.000  C
  C92      1.0000 0.25129  0.08902  0.81758  Biso   1.000  C
  C93      1.0000 0.27790  0.11562  0.85458  Biso   1.000  C
  C94      1.0000 0.28030  0.11803  0.72555  Biso   1.000  C
  C95      1.0000 0.91872  0.75644  0.14865  Biso   1.000  C
  C96      1.0000 0.85850  0.69623  0.21067  Biso   1.000  C
  O27      1.0000 0.43723  0.44800  0.69345  Biso   1.000  O
  O28      1.0000 0.43964  0.57423  0.56721  Biso   1.000  O
  O29      1.0000 0.43695  0.44691  0.39857  Biso   1.000  O
  O30      1.0000 0.43915  0.57273  0.39577  Biso   1.000  O
  O31      1.0000 0.73430  0.44661  0.39807  Biso   1.000  O
  O32      1.0000 0.00035  0.01111  0.83368  Biso   1.000  O
  O33      1.0000 0.87412  0.00870  0.95991  Biso   1.000  O
  O34      1.0000 0.00143  0.01139  0.12855  Biso   1.000  O
  O35      1.0000 0.87561  0.00919  0.13135  Biso   1.000  O
  O36      1.0000 0.00173  0.71404  0.12905  Biso   1.000  O
  O37      1.0000 0.17338  0.83807  0.83368  Biso   1.000  O
  O38      1.0000 0.17097  0.71184  0.95991  Biso   1.000  O
  O39      1.0000 0.17366  0.83916  0.12855  Biso   1.000  O
  O40      1.0000 0.17147  0.71334  0.13135  Biso   1.000  O
  O41      1.0000 0.87631  0.83946  0.12905  Biso   1.000  O
  O42      1.0000 0.61026  0.27496  0.69345  Biso   1.000  O
  O43      1.0000 0.73649  0.27737  0.56721  Biso   1.000  O
  O44      1.0000 0.60918  0.27468  0.39857  Biso   1.000  O
  O45      1.0000 0.73500  0.27688  0.39577  Biso   1.000  O
  O46      1.0000 0.60888  0.57203  0.39807  Biso   1.000  O
  O47      1.0000 0.55526  0.39299  0.51370  Biso   1.000  O
  O48      1.0000 0.43863  0.27636  0.69244  Biso   1.000  O
  O49      1.0000 0.43704  0.27477  0.57192  Biso   1.000  O
  O50      1.0000 0.05535  0.89308  0.01342  Biso   1.000  O
  O51      1.0000 0.17198  0.00971  0.83468  Biso   1.000  O
