data_image0
_cell_length_a       18.2486
_cell_length_b       18.2486
_cell_length_c       18.2486
_cell_angle_alpha    60
_cell_angle_beta     60
_cell_angle_gamma    60

_symmetry_space_group_name_H-M    "P 1"
_symmetry_int_tables_number       1

loop_
  _symmetry_equiv_pos_as_xyz
  'x, y, z'

loop_
  _atom_site_label
  _atom_site_occupancy
  _atom_site_fract_x
  _atom_site_fract_y
  _atom_site_fract_z
  _atom_site_thermal_displace_type
  _atom_site_B_iso_or_equiv
  _atom_site_type_symbol
  C1       1.0000 0.11962  0.29346  0.29346  Biso   1.000  C
  C2       1.0000 0.70654  0.88038  0.70654  Biso   1.000  C
  C3       1.0000 0.29346  0.29346  0.11962  Biso   1.000  C
  C4       1.0000 0.29346  0.29346  0.29346  Biso   1.000  C
  C5       1.0000 0.88038  0.70654  0.70654  Biso   1.000  C
  C6       1.0000 0.29346  0.11962  0.29346  Biso   1.000  C
  C7       1.0000 0.70654  0.70654  0.88038  Biso   1.000  C
  C8       1.0000 0.70654  0.70654  0.70654  Biso   1.000  C
  C9       1.0000 0.15060  0.45640  0.45640  Biso   1.000  C
  C10      1.0000 0.84940  0.54360  0.06340  Biso   1.000  C
  C11      1.0000 0.45640  0.93660  0.45640  Biso   1.000  C
  C12      1.0000 0.54360  0.84940  0.06340  Biso   1.000  C
  C13      1.0000 0.84940  0.54360  0.54360  Biso   1.000  C
  C14      1.0000 0.45640  0.15060  0.93660  Biso   1.000  C
  C15      1.0000 0.45640  0.93660  0.15060  Biso   1.000  C
  C16      1.0000 0.06340  0.54360  0.54360  Biso   1.000  C
  C17      1.0000 0.45640  0.15060  0.45640  Biso   1.000  C
  C18      1.0000 0.93660  0.45640  0.45640  Biso   1.000  C
  C19      1.0000 0.93660  0.15060  0.45640  Biso   1.000  C
  C20      1.0000 0.45640  0.45640  0.15060  Biso   1.000  C
  C21      1.0000 0.06340  0.84940  0.54360  Biso   1.000  C
  C22      1.0000 0.06340  0.54360  0.84940  Biso   1.000  C
  C23      1.0000 0.54360  0.06340  0.84940  Biso   1.000  C
  C24      1.0000 0.54360  0.84940  0.54360  Biso   1.000  C
  C25      1.0000 0.15060  0.93660  0.45640  Biso   1.000  C
  C26      1.0000 0.54360  0.06340  0.54360  Biso   1.000  C
  C27      1.0000 0.93660  0.45640  0.15060  Biso   1.000  C
  C28      1.0000 0.84940  0.06340  0.54360  Biso   1.000  C
  C29      1.0000 0.45640  0.45640  0.93660  Biso   1.000  C
  C30      1.0000 0.54360  0.54360  0.06340  Biso   1.000  C
  C31      1.0000 0.15060  0.45640  0.93660  Biso   1.000  C
  C32      1.0000 0.54360  0.54360  0.84940  Biso   1.000  C
  C33      1.0000 0.89030  0.60970  0.60970  Biso   1.000  C
  C34      1.0000 0.55390  0.55390  0.94610  Biso   1.000  C
  C35      1.0000 0.03650  0.91130  0.52610  Biso   1.000  C
  C36      1.0000 0.47390  0.96350  0.08870  Biso   1.000  C
  C37      1.0000 0.91130  0.52610  0.03650  Biso   1.000  C
  C38      1.0000 0.47390  0.47390  0.08870  Biso   1.000  C
  C39      1.0000 0.96350  0.08870  0.47390  Biso   1.000  C
  C40      1.0000 0.39030  0.10970  0.39030  Biso   1.000  C
  C41      1.0000 0.44610  0.05390  0.44610  Biso   1.000  C
  C42      1.0000 0.52610  0.52610  0.03650  Biso   1.000  C
  C43      1.0000 0.52610  0.91130  0.03650  Biso   1.000  C
  C44      1.0000 0.10970  0.10970  0.39030  Biso   1.000  C
  C45      1.0000 0.05390  0.44610  0.44610  Biso   1.000  C
  C46      1.0000 0.55390  0.94610  0.55390  Biso   1.000  C
  C47      1.0000 0.44610  0.05390  0.05390  Biso   1.000  C
  C48      1.0000 0.94610  0.55390  0.55390  Biso   1.000  C
  C49      1.0000 0.94610  0.55390  0.94610  Biso   1.000  C
  C50      1.0000 0.39030  0.39030  0.10970  Biso   1.000  C
  C51      1.0000 0.03650  0.52610  0.52610  Biso   1.000  C
  C52      1.0000 0.08870  0.47390  0.96350  Biso   1.000  C
  C53      1.0000 0.47390  0.96350  0.47390  Biso   1.000  C
  C54      1.0000 0.47390  0.47390  0.96350  Biso   1.000  C
  C55      1.0000 0.60970  0.89030  0.60970  Biso   1.000  C
  C56      1.0000 0.94610  0.94610  0.55390  Biso   1.000  C
  C57      1.0000 0.05390  0.05390  0.44610  Biso   1.000  C
  C58      1.0000 0.39030  0.10970  0.10970  Biso   1.000  C
  C59      1.0000 0.03650  0.52610  0.91130  Biso   1.000  C
  C60      1.0000 0.44610  0.44610  0.05390  Biso   1.000  C
  C61      1.0000 0.10970  0.39030  0.39030  Biso   1.000  C
  C62      1.0000 0.89030  0.89030  0.60970  Biso   1.000  C
  C63      1.0000 0.60970  0.89030  0.89030  Biso   1.000  C
  C64      1.0000 0.96350  0.47390  0.47390  Biso   1.000  C
  C65      1.0000 0.89030  0.60970  0.89030  Biso   1.000  C
  C66      1.0000 0.08870  0.47390  0.47390  Biso   1.000  C
  C67      1.0000 0.91130  0.52610  0.52610  Biso   1.000  C
  C68      1.0000 0.47390  0.08870  0.47390  Biso   1.000  C
  C69      1.0000 0.47390  0.08870  0.96350  Biso   1.000  C
  C70      1.0000 0.08870  0.96350  0.47390  Biso   1.000  C
  C71      1.0000 0.10970  0.39030  0.10970  Biso   1.000  C
  C72      1.0000 0.96350  0.47390  0.08870  Biso   1.000  C
  C73      1.0000 0.52610  0.52610  0.91130  Biso   1.000  C
  C74      1.0000 0.60970  0.60970  0.89030  Biso   1.000  C
  C75      1.0000 0.52610  0.91130  0.52610  Biso   1.000  C
  C76      1.0000 0.91130  0.03650  0.52610  Biso   1.000  C
  C77      1.0000 0.52610  0.03650  0.91130  Biso   1.000  C
  C78      1.0000 0.05390  0.44610  0.05390  Biso   1.000  C
  C79      1.0000 0.55390  0.94610  0.94610  Biso   1.000  C
  C80      1.0000 0.52610  0.03650  0.52610  Biso   1.000  C
  C81      1.0000 0.63380  0.80300  0.92940  Biso   1.000  C
  C82      1.0000 0.07060  0.19700  0.36620  Biso   1.000  C
  C83      1.0000 0.80300  0.63380  0.63380  Biso   1.000  C
  C84      1.0000 0.80300  0.92940  0.63380  Biso   1.000  C
  C85      1.0000 0.36620  0.07060  0.19700  Biso   1.000  C
  C86      1.0000 0.07060  0.36620  0.19700  Biso   1.000  C
  C87      1.0000 0.63380  0.92940  0.63380  Biso   1.000  C
  C88      1.0000 0.63380  0.80300  0.63380  Biso   1.000  C
  C89      1.0000 0.36620  0.36620  0.19700  Biso   1.000  C
  C90      1.0000 0.36620  0.07060  0.36620  Biso   1.000  C
  C91      1.0000 0.75000  0.75000  0.75000  Biso   1.000  C
  C92      1.0000 0.80300  0.63380  0.92940  Biso   1.000  C
  C93      1.0000 0.92940  0.80300  0.63380  Biso   1.000  C
  C94      1.0000 0.36620  0.19700  0.36620  Biso   1.000  C
  C95      1.0000 0.63380  0.63380  0.80300  Biso   1.000  C
  C96      1.0000 0.19700  0.36620  0.07060  Biso   1.000  C
  C97      1.0000 0.63380  0.63380  0.92940  Biso   1.000  C
  C98      1.0000 0.36620  0.36620  0.07060  Biso   1.000  C
  C99      1.0000 0.63380  0.92940  0.80300  Biso   1.000  C
  C100     1.0000 0.19700  0.07060  0.36620  Biso   1.000  C
  C101     1.0000 0.36620  0.19700  0.07060  Biso   1.000  C
  C102     1.0000 0.92940  0.63380  0.80300  Biso   1.000  C
  C103     1.0000 0.25000  0.25000  0.25000  Biso   1.000  C
  C104     1.0000 0.19700  0.36620  0.36620  Biso   1.000  C
  C105     1.0000 0.92940  0.63380  0.63380  Biso   1.000  C
  C106     1.0000 0.07060  0.36620  0.36620  Biso   1.000  C
  O1       1.0000 0.47792  0.34577  0.67114  Biso   1.000  O
  O2       1.0000 0.65207  0.34577  0.49699  Biso   1.000  O
  O3       1.0000 0.47792  0.34577  0.49699  Biso   1.000  O
  O4       1.0000 0.47792  0.51992  0.49699  Biso   1.000  O
  O5       1.0000 0.06516  0.93278  0.90986  Biso   1.000  O
  O6       1.0000 0.89101  0.93278  0.08401  Biso   1.000  O
  O7       1.0000 0.06516  0.75863  0.08401  Biso   1.000  O
  O8       1.0000 0.06516  0.93278  0.08401  Biso   1.000  O
  O9       1.0000 0.61938  0.18348  0.85425  Biso   1.000  O
  O10      1.0000 0.83529  0.18348  0.63834  Biso   1.000  O
  O11      1.0000 0.31575  0.48712  0.33471  Biso   1.000  O
  O12      1.0000 0.31575  0.70303  0.33471  Biso   1.000  O
  O13      1.0000 0.31575  0.70303  0.63834  Biso   1.000  O
  O14      1.0000 0.31575  0.48712  0.85425  Biso   1.000  O
  O15      1.0000 0.61938  0.18348  0.33471  Biso   1.000  O
  O16      1.0000 0.83529  0.18348  0.33471  Biso   1.000  O
  O17      1.0000 0.83529  0.48712  0.33471  Biso   1.000  O
  O18      1.0000 0.61938  0.70303  0.33471  Biso   1.000  O
  O19      1.0000 0.31575  0.18348  0.63834  Biso   1.000  O
  O20      1.0000 0.31575  0.18348  0.85425  Biso   1.000  O
  O21      1.0000 0.92370  0.09507  0.72675  Biso   1.000  O
  O22      1.0000 0.70779  0.09507  0.94266  Biso   1.000  O
  O23      1.0000 0.22734  0.57553  0.24630  Biso   1.000  O
  O24      1.0000 0.22734  0.79144  0.24630  Biso   1.000  O
  O25      1.0000 0.22734  0.09507  0.94266  Biso   1.000  O
  O26      1.0000 0.22734  0.09507  0.72675  Biso   1.000  O
  O27      1.0000 0.92370  0.57553  0.24630  Biso   1.000  O
  O28      1.0000 0.70779  0.79144  0.24630  Biso   1.000  O
  O29      1.0000 0.70779  0.09507  0.24630  Biso   1.000  O
  O30      1.0000 0.92370  0.09507  0.24630  Biso   1.000  O
  O31      1.0000 0.22734  0.57553  0.94266  Biso   1.000  O
  O32      1.0000 0.22734  0.79144  0.72675  Biso   1.000  O
  O33      1.0000 0.68154  0.16579  0.82748  Biso   1.000  O
  O34      1.0000 0.80852  0.16579  0.70050  Biso   1.000  O
  O35      1.0000 0.29805  0.54927  0.31701  Biso   1.000  O
  O36      1.0000 0.29805  0.67625  0.31701  Biso   1.000  O
  O37      1.0000 0.29805  0.67625  0.70050  Biso   1.000  O
  O38      1.0000 0.29805  0.54927  0.82748  Biso   1.000  O
  O39      1.0000 0.68154  0.16579  0.31701  Biso   1.000  O
  O40      1.0000 0.80852  0.16579  0.31701  Biso   1.000  O
  O41      1.0000 0.80852  0.54927  0.31701  Biso   1.000  O
  O42      1.0000 0.68154  0.67625  0.31701  Biso   1.000  O
  O43      1.0000 0.29805  0.16579  0.70050  Biso   1.000  O
  O44      1.0000 0.29805  0.16579  0.82748  Biso   1.000  O
  O45      1.0000 0.86154  0.11276  0.75352  Biso   1.000  O
  O46      1.0000 0.73456  0.11276  0.88050  Biso   1.000  O
  O47      1.0000 0.24503  0.60230  0.26399  Biso   1.000  O
  O48      1.0000 0.24503  0.72928  0.26399  Biso   1.000  O
  O49      1.0000 0.24503  0.11276  0.88050  Biso   1.000  O
  O50      1.0000 0.24503  0.11276  0.75352  Biso   1.000  O
  O51      1.0000 0.86154  0.60230  0.26399  Biso   1.000  O
  O52      1.0000 0.73456  0.72928  0.26399  Biso   1.000  O
  O53      1.0000 0.73456  0.11276  0.26399  Biso   1.000  O
  O54      1.0000 0.86154  0.11276  0.26399  Biso   1.000  O
  O55      1.0000 0.24503  0.60230  0.88050  Biso   1.000  O
  O56      1.0000 0.24503  0.72928  0.75352  Biso   1.000  O
  O57      1.0000 0.66006  0.25070  0.67914  Biso   1.000  O
  O58      1.0000 0.71778  0.19298  0.73685  Biso   1.000  O
  O59      1.0000 0.38285  0.52791  0.40192  Biso   1.000  O
  O60      1.0000 0.32513  0.58563  0.34421  Biso   1.000  O
  O61      1.0000 0.38285  0.52791  0.67914  Biso   1.000  O
  O62      1.0000 0.32513  0.58563  0.73685  Biso   1.000  O
  O63      1.0000 0.66006  0.25070  0.40192  Biso   1.000  O
  O64      1.0000 0.71778  0.19298  0.34421  Biso   1.000  O
  O65      1.0000 0.66006  0.52791  0.40192  Biso   1.000  O
  O66      1.0000 0.71778  0.58563  0.34421  Biso   1.000  O
  O67      1.0000 0.38285  0.25070  0.67914  Biso   1.000  O
  O68      1.0000 0.32513  0.19298  0.73685  Biso   1.000  O
  O69      1.0000 0.88302  0.02785  0.90187  Biso   1.000  O
  O70      1.0000 0.82530  0.08557  0.84415  Biso   1.000  O
  O71      1.0000 0.16023  0.75064  0.17908  Biso   1.000  O
  O72      1.0000 0.21795  0.69292  0.23679  Biso   1.000  O
  O73      1.0000 0.16023  0.02785  0.90187  Biso   1.000  O
  O74      1.0000 0.21795  0.08557  0.84415  Biso   1.000  O
  O75      1.0000 0.88302  0.75064  0.17908  Biso   1.000  O
  O76      1.0000 0.82530  0.69292  0.23679  Biso   1.000  O
  O77      1.0000 0.88302  0.02785  0.17908  Biso   1.000  O
  O78      1.0000 0.82530  0.08557  0.23679  Biso   1.000  O
  O79      1.0000 0.16023  0.75064  0.90187  Biso   1.000  O
  O80      1.0000 0.21795  0.69292  0.84415  Biso   1.000  O
  O81      1.0000 0.52145  0.38931  0.54053  Biso   1.000  O
  O82      1.0000 0.02163  0.88925  0.04047  Biso   1.000  O
  O83      1.0000 0.57677  0.27324  0.71734  Biso   1.000  O
  O84      1.0000 0.69827  0.27324  0.59585  Biso   1.000  O
  O85      1.0000 0.40539  0.44462  0.42447  Biso   1.000  O
  O86      1.0000 0.40539  0.56612  0.42447  Biso   1.000  O
  O87      1.0000 0.40539  0.56612  0.59585  Biso   1.000  O
  O88      1.0000 0.40539  0.44462  0.71734  Biso   1.000  O
  O89      1.0000 0.57677  0.27324  0.42447  Biso   1.000  O
  O90      1.0000 0.69826  0.27324  0.42447  Biso   1.000  O
  O91      1.0000 0.69827  0.44462  0.42447  Biso   1.000  O
  O92      1.0000 0.57677  0.56612  0.42447  Biso   1.000  O
  O93      1.0000 0.40539  0.27324  0.59585  Biso   1.000  O
  O94      1.0000 0.40539  0.27324  0.71734  Biso   1.000  O
  O95      1.0000 0.96631  0.00531  0.86366  Biso   1.000  O
  O96      1.0000 0.84482  0.00531  0.98516  Biso   1.000  O
  O97      1.0000 0.13769  0.71244  0.15654  Biso   1.000  O
  O98      1.0000 0.13769  0.83393  0.15654  Biso   1.000  O
  O99      1.0000 0.13769  0.00531  0.98516  Biso   1.000  O
  O100     1.0000 0.13769  0.00531  0.86366  Biso   1.000  O
  O101     1.0000 0.96631  0.71244  0.15654  Biso   1.000  O
  O102     1.0000 0.84482  0.83393  0.15654  Biso   1.000  O
  O103     1.0000 0.84482  0.00531  0.15654  Biso   1.000  O
  O104     1.0000 0.96631  0.00531  0.15654  Biso   1.000  O
  O105     1.0000 0.13769  0.71244  0.98516  Biso   1.000  O
