data_image0
_cell_length_a       18.2486
_cell_length_b       18.2486
_cell_length_c       18.2486
_cell_angle_alpha    60
_cell_angle_beta     60
_cell_angle_gamma    60

_symmetry_space_group_name_H-M    "P 1"
_symmetry_int_tables_number       1

loop_
  _symmetry_equiv_pos_as_xyz
  'x, y, z'

loop_
  _atom_site_label
  _atom_site_occupancy
  _atom_site_fract_x
  _atom_site_fract_y
  _atom_site_fract_z
  _atom_site_thermal_displace_type
  _atom_site_B_iso_or_equiv
  _atom_site_type_symbol
  C1       1.0000 0.11962  0.29346  0.29346  Biso   1.000  C
  C2       1.0000 0.70654  0.88038  0.70654  Biso   1.000  C
  C3       1.0000 0.29346  0.29346  0.11962  Biso   1.000  C
  C4       1.0000 0.29346  0.29346  0.29346  Biso   1.000  C
  C5       1.0000 0.88038  0.70654  0.70654  Biso   1.000  C
  C6       1.0000 0.29346  0.11962  0.29346  Biso   1.000  C
  C7       1.0000 0.70654  0.70654  0.88038  Biso   1.000  C
  C8       1.0000 0.70654  0.70654  0.70654  Biso   1.000  C
  C9       1.0000 0.15060  0.45640  0.45640  Biso   1.000  C
  C10      1.0000 0.84940  0.54360  0.06340  Biso   1.000  C
  C11      1.0000 0.45640  0.93660  0.45640  Biso   1.000  C
  C12      1.0000 0.54360  0.84940  0.06340  Biso   1.000  C
  C13      1.0000 0.84940  0.54360  0.54360  Biso   1.000  C
  C14      1.0000 0.45640  0.15060  0.93660  Biso   1.000  C
  C15      1.0000 0.45640  0.93660  0.15060  Biso   1.000  C
  C16      1.0000 0.06340  0.54360  0.54360  Biso   1.000  C
  C17      1.0000 0.45640  0.15060  0.45640  Biso   1.000  C
  C18      1.0000 0.93660  0.45640  0.45640  Biso   1.000  C
  C19      1.0000 0.93660  0.15060  0.45640  Biso   1.000  C
  C20      1.0000 0.45640  0.45640  0.15060  Biso   1.000  C
  C21      1.0000 0.06340  0.84940  0.54360  Biso   1.000  C
  C22      1.0000 0.06340  0.54360  0.84940  Biso   1.000  C
  C23      1.0000 0.54360  0.06340  0.84940  Biso   1.000  C
  C24      1.0000 0.54360  0.84940  0.54360  Biso   1.000  C
  C25      1.0000 0.15060  0.93660  0.45640  Biso   1.000  C
  C26      1.0000 0.54360  0.06340  0.54360  Biso   1.000  C
  C27      1.0000 0.93660  0.45640  0.15060  Biso   1.000  C
  C28      1.0000 0.84940  0.06340  0.54360  Biso   1.000  C
  C29      1.0000 0.45640  0.45640  0.93660  Biso   1.000  C
  C30      1.0000 0.54360  0.54360  0.06340  Biso   1.000  C
  C31      1.0000 0.15060  0.45640  0.93660  Biso   1.000  C
  C32      1.0000 0.54360  0.54360  0.84940  Biso   1.000  C
  C33      1.0000 0.89030  0.60970  0.60970  Biso   1.000  C
  C34      1.0000 0.55390  0.55390  0.94610  Biso   1.000  C
  C35      1.0000 0.03650  0.91130  0.52610  Biso   1.000  C
  C36      1.0000 0.47390  0.96350  0.08870  Biso   1.000  C
  C37      1.0000 0.91130  0.52610  0.03650  Biso   1.000  C
  C38      1.0000 0.47390  0.47390  0.08870  Biso   1.000  C
  C39      1.0000 0.96350  0.08870  0.47390  Biso   1.000  C
  C40      1.0000 0.39030  0.10970  0.39030  Biso   1.000  C
  C41      1.0000 0.44610  0.05390  0.44610  Biso   1.000  C
  C42      1.0000 0.52610  0.52610  0.03650  Biso   1.000  C
  C43      1.0000 0.52610  0.91130  0.03650  Biso   1.000  C
  C44      1.0000 0.10970  0.10970  0.39030  Biso   1.000  C
  C45      1.0000 0.05390  0.44610  0.44610  Biso   1.000  C
  C46      1.0000 0.55390  0.94610  0.55390  Biso   1.000  C
  C47      1.0000 0.44610  0.05390  0.05390  Biso   1.000  C
  C48      1.0000 0.94610  0.55390  0.55390  Biso   1.000  C
  C49      1.0000 0.94610  0.55390  0.94610  Biso   1.000  C
  C50      1.0000 0.39030  0.39030  0.10970  Biso   1.000  C
  C51      1.0000 0.03650  0.52610  0.52610  Biso   1.000  C
  C52      1.0000 0.08870  0.47390  0.96350  Biso   1.000  C
  C53      1.0000 0.47390  0.96350  0.47390  Biso   1.000  C
  C54      1.0000 0.47390  0.47390  0.96350  Biso   1.000  C
  C55      1.0000 0.60970  0.89030  0.60970  Biso   1.000  C
  C56      1.0000 0.94610  0.94610  0.55390  Biso   1.000  C
  C57      1.0000 0.05390  0.05390  0.44610  Biso   1.000  C
  C58      1.0000 0.39030  0.10970  0.10970  Biso   1.000  C
  C59      1.0000 0.03650  0.52610  0.91130  Biso   1.000  C
  C60      1.0000 0.44610  0.44610  0.05390  Biso   1.000  C
  C61      1.0000 0.10970  0.39030  0.39030  Biso   1.000  C
  C62      1.0000 0.89030  0.89030  0.60970  Biso   1.000  C
  C63      1.0000 0.60970  0.89030  0.89030  Biso   1.000  C
  C64      1.0000 0.96350  0.47390  0.47390  Biso   1.000  C
  C65      1.0000 0.89030  0.60970  0.89030  Biso   1.000  C
  C66      1.0000 0.08870  0.47390  0.47390  Biso   1.000  C
  C67      1.0000 0.91130  0.52610  0.52610  Biso   1.000  C
  C68      1.0000 0.47390  0.08870  0.47390  Biso   1.000  C
  C69      1.0000 0.47390  0.08870  0.96350  Biso   1.000  C
  C70      1.0000 0.08870  0.96350  0.47390  Biso   1.000  C
  C71      1.0000 0.10970  0.39030  0.10970  Biso   1.000  C
  C72      1.0000 0.96350  0.47390  0.08870  Biso   1.000  C
  C73      1.0000 0.52610  0.52610  0.91130  Biso   1.000  C
  C74      1.0000 0.60970  0.60970  0.89030  Biso   1.000  C
  C75      1.0000 0.52610  0.91130  0.52610  Biso   1.000  C
  C76      1.0000 0.91130  0.03650  0.52610  Biso   1.000  C
  C77      1.0000 0.52610  0.03650  0.91130  Biso   1.000  C
  C78      1.0000 0.05390  0.44610  0.05390  Biso   1.000  C
  C79      1.0000 0.55390  0.94610  0.94610  Biso   1.000  C
  C80      1.0000 0.52610  0.03650  0.52610  Biso   1.000  C
  C81      1.0000 0.63380  0.80300  0.92940  Biso   1.000  C
  C82      1.0000 0.07060  0.19700  0.36620  Biso   1.000  C
  C83      1.0000 0.80300  0.63380  0.63380  Biso   1.000  C
  C84      1.0000 0.80300  0.92940  0.63380  Biso   1.000  C
  C85      1.0000 0.36620  0.07060  0.19700  Biso   1.000  C
  C86      1.0000 0.07060  0.36620  0.19700  Biso   1.000  C
  C87      1.0000 0.63380  0.92940  0.63380  Biso   1.000  C
  C88      1.0000 0.63380  0.80300  0.63380  Biso   1.000  C
  C89      1.0000 0.36620  0.36620  0.19700  Biso   1.000  C
  C90      1.0000 0.36620  0.07060  0.36620  Biso   1.000  C
  C91      1.0000 0.75000  0.75000  0.75000  Biso   1.000  C
  C92      1.0000 0.80300  0.63380  0.92940  Biso   1.000  C
  C93      1.0000 0.92940  0.80300  0.63380  Biso   1.000  C
  C94      1.0000 0.36620  0.19700  0.36620  Biso   1.000  C
  C95      1.0000 0.63380  0.63380  0.80300  Biso   1.000  C
  C96      1.0000 0.19700  0.36620  0.07060  Biso   1.000  C
  C97      1.0000 0.63380  0.63380  0.92940  Biso   1.000  C
  C98      1.0000 0.36620  0.36620  0.07060  Biso   1.000  C
  C99      1.0000 0.63380  0.92940  0.80300  Biso   1.000  C
  C100     1.0000 0.19700  0.07060  0.36620  Biso   1.000  C
  C101     1.0000 0.36620  0.19700  0.07060  Biso   1.000  C
  C102     1.0000 0.92940  0.63380  0.80300  Biso   1.000  C
  C103     1.0000 0.25000  0.25000  0.25000  Biso   1.000  C
  C104     1.0000 0.19700  0.36620  0.36620  Biso   1.000  C
  C105     1.0000 0.92940  0.63380  0.63380  Biso   1.000  C
  C106     1.0000 0.07060  0.36620  0.36620  Biso   1.000  C
  O1       1.0000 0.47792  0.34577  0.67114  Biso   1.000  O
  O2       1.0000 0.65214  0.34577  0.49693  Biso   1.000  O
  O3       1.0000 0.47792  0.34577  0.49693  Biso   1.000  O
  O4       1.0000 0.47792  0.51999  0.49693  Biso   1.000  O
  O5       1.0000 0.06993  0.93124  0.90818  Biso   1.000  O
  O6       1.0000 0.89571  0.93124  0.08239  Biso   1.000  O
  O7       1.0000 0.06993  0.75702  0.08239  Biso   1.000  O
  O8       1.0000 0.06993  0.93124  0.08239  Biso   1.000  O
  O9       1.0000 0.61945  0.18385  0.85344  Biso   1.000  O
  O10      1.0000 0.83770  0.18385  0.63519  Biso   1.000  O
  O11      1.0000 0.31927  0.48403  0.33501  Biso   1.000  O
  O12      1.0000 0.31927  0.70228  0.33501  Biso   1.000  O
  O13      1.0000 0.31927  0.70228  0.63519  Biso   1.000  O
  O14      1.0000 0.31927  0.48403  0.85344  Biso   1.000  O
  O15      1.0000 0.61945  0.18385  0.33501  Biso   1.000  O
  O16      1.0000 0.83770  0.18385  0.33501  Biso   1.000  O
  O17      1.0000 0.83770  0.48403  0.33501  Biso   1.000  O
  O18      1.0000 0.61945  0.70228  0.33501  Biso   1.000  O
  O19      1.0000 0.31927  0.18385  0.63519  Biso   1.000  O
  O20      1.0000 0.31927  0.18385  0.85344  Biso   1.000  O
  O21      1.0000 0.92840  0.09316  0.72588  Biso   1.000  O
  O22      1.0000 0.71015  0.09316  0.94413  Biso   1.000  O
  O23      1.0000 0.22858  0.57473  0.24431  Biso   1.000  O
  O24      1.0000 0.22858  0.79298  0.24431  Biso   1.000  O
  O25      1.0000 0.22858  0.09316  0.94413  Biso   1.000  O
  O26      1.0000 0.22858  0.09316  0.72588  Biso   1.000  O
  O27      1.0000 0.92840  0.57473  0.24431  Biso   1.000  O
  O28      1.0000 0.71015  0.79298  0.24431  Biso   1.000  O
  O29      1.0000 0.71015  0.09316  0.24431  Biso   1.000  O
  O30      1.0000 0.92840  0.09316  0.24431  Biso   1.000  O
  O31      1.0000 0.22858  0.57473  0.94413  Biso   1.000  O
  O32      1.0000 0.22858  0.79298  0.72588  Biso   1.000  O
  O33      1.0000 0.68291  0.16542  0.82684  Biso   1.000  O
  O34      1.0000 0.81111  0.16542  0.69864  Biso   1.000  O
  O35      1.0000 0.30084  0.54749  0.31658  Biso   1.000  O
  O36      1.0000 0.30084  0.67569  0.31658  Biso   1.000  O
  O37      1.0000 0.30084  0.67569  0.69864  Biso   1.000  O
  O38      1.0000 0.30084  0.54749  0.82684  Biso   1.000  O
  O39      1.0000 0.68291  0.16542  0.31658  Biso   1.000  O
  O40      1.0000 0.81111  0.16542  0.31658  Biso   1.000  O
  O41      1.0000 0.81111  0.54749  0.31658  Biso   1.000  O
  O42      1.0000 0.68291  0.67569  0.31658  Biso   1.000  O
  O43      1.0000 0.30084  0.16542  0.69864  Biso   1.000  O
  O44      1.0000 0.30084  0.16542  0.82684  Biso   1.000  O
  O45      1.0000 0.86494  0.11159  0.75248  Biso   1.000  O
  O46      1.0000 0.73674  0.11159  0.88068  Biso   1.000  O
  O47      1.0000 0.24701  0.60132  0.26274  Biso   1.000  O
  O48      1.0000 0.24701  0.72952  0.26274  Biso   1.000  O
  O49      1.0000 0.24701  0.11159  0.88068  Biso   1.000  O
  O50      1.0000 0.24701  0.11159  0.75248  Biso   1.000  O
  O51      1.0000 0.86494  0.60132  0.26274  Biso   1.000  O
  O52      1.0000 0.73674  0.72952  0.26274  Biso   1.000  O
  O53      1.0000 0.73674  0.11159  0.26274  Biso   1.000  O
  O54      1.0000 0.86494  0.11159  0.26274  Biso   1.000  O
  O55      1.0000 0.24701  0.60132  0.88068  Biso   1.000  O
  O56      1.0000 0.24701  0.72952  0.75248  Biso   1.000  O
  O57      1.0000 0.66035  0.25044  0.67936  Biso   1.000  O
  O58      1.0000 0.71852  0.19227  0.73753  Biso   1.000  O
  O59      1.0000 0.38259  0.52821  0.40160  Biso   1.000  O
  O60      1.0000 0.32442  0.58637  0.34343  Biso   1.000  O
  O61      1.0000 0.38259  0.52821  0.67936  Biso   1.000  O
  O62      1.0000 0.32442  0.58637  0.73753  Biso   1.000  O
  O63      1.0000 0.66035  0.25044  0.40160  Biso   1.000  O
  O64      1.0000 0.71852  0.19227  0.34343  Biso   1.000  O
  O65      1.0000 0.66035  0.52821  0.40160  Biso   1.000  O
  O66      1.0000 0.71852  0.58637  0.34343  Biso   1.000  O
  O67      1.0000 0.38259  0.25044  0.67936  Biso   1.000  O
  O68      1.0000 0.32442  0.19227  0.73753  Biso   1.000  O
  O69      1.0000 0.88750  0.02657  0.89996  Biso   1.000  O
  O70      1.0000 0.82933  0.08474  0.84179  Biso   1.000  O
  O71      1.0000 0.16526  0.74880  0.17773  Biso   1.000  O
  O72      1.0000 0.22343  0.69063  0.23590  Biso   1.000  O
  O73      1.0000 0.16526  0.02657  0.89996  Biso   1.000  O
  O74      1.0000 0.22343  0.08474  0.84179  Biso   1.000  O
  O75      1.0000 0.88750  0.74880  0.17773  Biso   1.000  O
  O76      1.0000 0.82933  0.69063  0.23590  Biso   1.000  O
  O77      1.0000 0.88750  0.02657  0.17773  Biso   1.000  O
  O78      1.0000 0.82933  0.08474  0.23590  Biso   1.000  O
  O79      1.0000 0.16526  0.74880  0.89996  Biso   1.000  O
  O80      1.0000 0.22343  0.69063  0.84179  Biso   1.000  O
  O81      1.0000 0.52147  0.38932  0.54048  Biso   1.000  O
  O82      1.0000 0.02638  0.88769  0.03884  Biso   1.000  O
  O83      1.0000 0.57660  0.27265  0.71869  Biso   1.000  O
  O84      1.0000 0.69968  0.27265  0.59561  Biso   1.000  O
  O85      1.0000 0.40480  0.44445  0.42381  Biso   1.000  O
  O86      1.0000 0.40480  0.56753  0.42381  Biso   1.000  O
  O87      1.0000 0.40480  0.56753  0.59561  Biso   1.000  O
  O88      1.0000 0.40480  0.44445  0.71869  Biso   1.000  O
  O89      1.0000 0.57660  0.27265  0.42381  Biso   1.000  O
  O90      1.0000 0.69968  0.27265  0.42381  Biso   1.000  O
  O91      1.0000 0.69968  0.44445  0.42381  Biso   1.000  O
  O92      1.0000 0.57660  0.56753  0.42381  Biso   1.000  O
  O93      1.0000 0.40480  0.27265  0.59561  Biso   1.000  O
  O94      1.0000 0.40480  0.27265  0.71869  Biso   1.000  O
  O95      1.0000 0.97125  0.00436  0.86063  Biso   1.000  O
  O96      1.0000 0.84817  0.00436  0.98371  Biso   1.000  O
  O97      1.0000 0.14305  0.70948  0.15551  Biso   1.000  O
  O98      1.0000 0.14305  0.83256  0.15551  Biso   1.000  O
  O99      1.0000 0.14305  0.00436  0.98371  Biso   1.000  O
  O100     1.0000 0.14305  0.00436  0.86063  Biso   1.000  O
  O101     1.0000 0.97125  0.70948  0.15551  Biso   1.000  O
  O102     1.0000 0.84817  0.83256  0.15551  Biso   1.000  O
  O103     1.0000 0.84817  0.00436  0.15551  Biso   1.000  O
  O104     1.0000 0.97125  0.00436  0.15551  Biso   1.000  O
  O105     1.0000 0.14305  0.70948  0.98371  Biso   1.000  O
