data_image0
_cell_length_a       18.2486
_cell_length_b       18.2486
_cell_length_c       18.2486
_cell_angle_alpha    60
_cell_angle_beta     60
_cell_angle_gamma    60

_symmetry_space_group_name_H-M    "P 1"
_symmetry_int_tables_number       1

loop_
  _symmetry_equiv_pos_as_xyz
  'x, y, z'

loop_
  _atom_site_label
  _atom_site_occupancy
  _atom_site_fract_x
  _atom_site_fract_y
  _atom_site_fract_z
  _atom_site_thermal_displace_type
  _atom_site_B_iso_or_equiv
  _atom_site_type_symbol
  Zn1      1.0000 0.11962  0.29346  0.29346  Biso   1.000  Zn
  Zn2      1.0000 0.70654  0.88038  0.70654  Biso   1.000  Zn
  Zn3      1.0000 0.29346  0.29346  0.11962  Biso   1.000  Zn
  Zn4      1.0000 0.29346  0.29346  0.29346  Biso   1.000  Zn
  Zn5      1.0000 0.88038  0.70654  0.70654  Biso   1.000  Zn
  Zn6      1.0000 0.29346  0.11962  0.29346  Biso   1.000  Zn
  Zn7      1.0000 0.70654  0.70654  0.88038  Biso   1.000  Zn
  Zn8      1.0000 0.70654  0.70654  0.70654  Biso   1.000  Zn
  H1       1.0000 0.15060  0.45640  0.45640  Biso   1.000  H
  H2       1.0000 0.84940  0.54360  0.06340  Biso   1.000  H
  H3       1.0000 0.45640  0.93660  0.45640  Biso   1.000  H
  H4       1.0000 0.54360  0.84940  0.06340  Biso   1.000  H
  H5       1.0000 0.84940  0.54360  0.54360  Biso   1.000  H
  H6       1.0000 0.45640  0.15060  0.93660  Biso   1.000  H
  H7       1.0000 0.45640  0.93660  0.15060  Biso   1.000  H
  H8       1.0000 0.06340  0.54360  0.54360  Biso   1.000  H
  H9       1.0000 0.45640  0.15060  0.45640  Biso   1.000  H
  H10      1.0000 0.93660  0.45640  0.45640  Biso   1.000  H
  H11      1.0000 0.93660  0.15060  0.45640  Biso   1.000  H
  H12      1.0000 0.45640  0.45640  0.15060  Biso   1.000  H
  H13      1.0000 0.06340  0.84940  0.54360  Biso   1.000  H
  H14      1.0000 0.06340  0.54360  0.84940  Biso   1.000  H
  H15      1.0000 0.54360  0.06340  0.84940  Biso   1.000  H
  H16      1.0000 0.54360  0.84940  0.54360  Biso   1.000  H
  H17      1.0000 0.15060  0.93660  0.45640  Biso   1.000  H
  H18      1.0000 0.54360  0.06340  0.54360  Biso   1.000  H
  H19      1.0000 0.93660  0.45640  0.15060  Biso   1.000  H
  H20      1.0000 0.84940  0.06340  0.54360  Biso   1.000  H
  H21      1.0000 0.45640  0.45640  0.93660  Biso   1.000  H
  H22      1.0000 0.54360  0.54360  0.06340  Biso   1.000  H
  H23      1.0000 0.15060  0.45640  0.93660  Biso   1.000  H
  H24      1.0000 0.54360  0.54360  0.84940  Biso   1.000  H
  C1       1.0000 0.89030  0.60970  0.60970  Biso   1.000  C
  C2       1.0000 0.55390  0.55390  0.94610  Biso   1.000  C
  C3       1.0000 0.03650  0.91130  0.52610  Biso   1.000  C
  C4       1.0000 0.47390  0.96350  0.08870  Biso   1.000  C
  C5       1.0000 0.91130  0.52610  0.03650  Biso   1.000  C
  C6       1.0000 0.47390  0.47390  0.08870  Biso   1.000  C
  C7       1.0000 0.96350  0.08870  0.47390  Biso   1.000  C
  C8       1.0000 0.39030  0.10970  0.39030  Biso   1.000  C
  C9       1.0000 0.44610  0.05390  0.44610  Biso   1.000  C
  C10      1.0000 0.52610  0.52610  0.03650  Biso   1.000  C
  C11      1.0000 0.52610  0.91130  0.03650  Biso   1.000  C
  C12      1.0000 0.10970  0.10970  0.39030  Biso   1.000  C
  C13      1.0000 0.05390  0.44610  0.44610  Biso   1.000  C
  C14      1.0000 0.55390  0.94610  0.55390  Biso   1.000  C
  C15      1.0000 0.44610  0.05390  0.05390  Biso   1.000  C
  C16      1.0000 0.94610  0.55390  0.55390  Biso   1.000  C
  C17      1.0000 0.94610  0.55390  0.94610  Biso   1.000  C
  C18      1.0000 0.39030  0.39030  0.10970  Biso   1.000  C
  C19      1.0000 0.03650  0.52610  0.52610  Biso   1.000  C
  C20      1.0000 0.08870  0.47390  0.96350  Biso   1.000  C
  C21      1.0000 0.47390  0.96350  0.47390  Biso   1.000  C
  C22      1.0000 0.47390  0.47390  0.96350  Biso   1.000  C
  C23      1.0000 0.60970  0.89030  0.60970  Biso   1.000  C
  C24      1.0000 0.94610  0.94610  0.55390  Biso   1.000  C
  C25      1.0000 0.05390  0.05390  0.44610  Biso   1.000  C
  C26      1.0000 0.39030  0.10970  0.10970  Biso   1.000  C
  C27      1.0000 0.03650  0.52610  0.91130  Biso   1.000  C
  C28      1.0000 0.44610  0.44610  0.05390  Biso   1.000  C
  C29      1.0000 0.10970  0.39030  0.39030  Biso   1.000  C
  C30      1.0000 0.89030  0.89030  0.60970  Biso   1.000  C
  C31      1.0000 0.60970  0.89030  0.89030  Biso   1.000  C
  C32      1.0000 0.96350  0.47390  0.47390  Biso   1.000  C
  C33      1.0000 0.89030  0.60970  0.89030  Biso   1.000  C
  C34      1.0000 0.08870  0.47390  0.47390  Biso   1.000  C
  C35      1.0000 0.91130  0.52610  0.52610  Biso   1.000  C
  C36      1.0000 0.47390  0.08870  0.47390  Biso   1.000  C
  C37      1.0000 0.47390  0.08870  0.96350  Biso   1.000  C
  C38      1.0000 0.08870  0.96350  0.47390  Biso   1.000  C
  C39      1.0000 0.10970  0.39030  0.10970  Biso   1.000  C
  C40      1.0000 0.96350  0.47390  0.08870  Biso   1.000  C
  C41      1.0000 0.52610  0.52610  0.91130  Biso   1.000  C
  C42      1.0000 0.60970  0.60970  0.89030  Biso   1.000  C
  C43      1.0000 0.52610  0.91130  0.52610  Biso   1.000  C
  C44      1.0000 0.91130  0.03650  0.52610  Biso   1.000  C
  C45      1.0000 0.52610  0.03650  0.91130  Biso   1.000  C
  C46      1.0000 0.05390  0.44610  0.05390  Biso   1.000  C
  C47      1.0000 0.55390  0.94610  0.94610  Biso   1.000  C
  C48      1.0000 0.52610  0.03650  0.52610  Biso   1.000  C
  O1       1.0000 0.63380  0.80300  0.92940  Biso   1.000  O
  O2       1.0000 0.07060  0.19700  0.36620  Biso   1.000  O
  O3       1.0000 0.80300  0.63380  0.63380  Biso   1.000  O
  O4       1.0000 0.80300  0.92940  0.63380  Biso   1.000  O
  O5       1.0000 0.36620  0.07060  0.19700  Biso   1.000  O
  O6       1.0000 0.07060  0.36620  0.19700  Biso   1.000  O
  O7       1.0000 0.63380  0.92940  0.63380  Biso   1.000  O
  O8       1.0000 0.63380  0.80300  0.63380  Biso   1.000  O
  O9       1.0000 0.36620  0.36620  0.19700  Biso   1.000  O
  O10      1.0000 0.36620  0.07060  0.36620  Biso   1.000  O
  O11      1.0000 0.75000  0.75000  0.75000  Biso   1.000  O
  O12      1.0000 0.80300  0.63380  0.92940  Biso   1.000  O
  O13      1.0000 0.92940  0.80300  0.63380  Biso   1.000  O
  O14      1.0000 0.36620  0.19700  0.36620  Biso   1.000  O
  O15      1.0000 0.63380  0.63380  0.80300  Biso   1.000  O
  O16      1.0000 0.19700  0.36620  0.07060  Biso   1.000  O
  O17      1.0000 0.63380  0.63380  0.92940  Biso   1.000  O
  O18      1.0000 0.36620  0.36620  0.07060  Biso   1.000  O
  O19      1.0000 0.63380  0.92940  0.80300  Biso   1.000  O
  O20      1.0000 0.19700  0.07060  0.36620  Biso   1.000  O
  O21      1.0000 0.36620  0.19700  0.07060  Biso   1.000  O
  O22      1.0000 0.92940  0.63380  0.80300  Biso   1.000  O
  O23      1.0000 0.25000  0.25000  0.25000  Biso   1.000  O
  O24      1.0000 0.19700  0.36620  0.36620  Biso   1.000  O
  O25      1.0000 0.92940  0.63380  0.63380  Biso   1.000  O
  O26      1.0000 0.07060  0.36620  0.36620  Biso   1.000  O
  Zn9      1.0000 0.00000  0.00000  0.00000  Biso   1.000  Zn
  Zn10     1.0000 0.57454  0.41727  0.59091  Biso   1.000  Zn
  Zn11     1.0000 0.57454  0.59106  0.59091  Biso   1.000  Zn
  Zn12     1.0000 0.00000  0.17378  0.00000  Biso   1.000  Zn
  Zn13     1.0000 0.99996  0.99992  0.17398  Biso   1.000  Zn
  Zn14     1.0000 0.17355  0.00018  0.99987  Biso   1.000  Zn
  Zn15     1.0000 0.57458  0.59114  0.41693  Biso   1.000  Zn
  Zn16     1.0000 0.40098  0.59088  0.59104  Biso   1.000  Zn
  H25      1.0000 0.82732  0.84316  0.36534  Biso   1.000  H
  H26      1.0000 0.82637  0.84471  0.13649  Biso   1.000  H
  H27      1.0000 0.82348  0.13655  0.84555  Biso   1.000  H
  H28      1.0000 0.74722  0.45310  0.22557  Biso   1.000  H
  H29      1.0000 0.74817  0.22485  0.45442  Biso   1.000  H
  H30      1.0000 0.75106  0.22285  0.74536  Biso   1.000  H
  H31      1.0000 0.74722  0.74789  0.22557  Biso   1.000  H
  H32      1.0000 0.74817  0.74635  0.45442  Biso   1.000  H
  H33      1.0000 0.75106  0.45451  0.74536  Biso   1.000  H
  H34      1.0000 0.82732  0.13796  0.36534  Biso   1.000  H
  H35      1.0000 0.82637  0.36621  0.13649  Biso   1.000  H
  H36      1.0000 0.82348  0.36821  0.84555  Biso   1.000  H
  C49      1.0000 0.91272  0.91176  0.17845  Biso   1.000  C
  C50      1.0000 0.84865  0.84718  0.23777  Biso   1.000  C
  C51      1.0000 0.81165  0.82174  0.33895  Biso   1.000  C
  C52      1.0000 0.81169  0.82318  0.19978  Biso   1.000  C
  C53      1.0000 0.17447  0.91237  0.91251  Biso   1.000  C
  C54      1.0000 0.81008  0.19973  0.82184  Biso   1.000  C
  C55      1.0000 0.66182  0.42021  0.41246  Biso   1.000  C
  C56      1.0000 0.72589  0.35088  0.35314  Biso   1.000  C
  C57      1.0000 0.76289  0.38961  0.25196  Biso   1.000  C
  C58      1.0000 0.76285  0.25193  0.39113  Biso   1.000  C
  C59      1.0000 0.40007  0.41662  0.67840  Biso   1.000  C
  C60      1.0000 0.76445  0.24893  0.76907  Biso   1.000  C
  C61      1.0000 0.66182  0.67930  0.41246  Biso   1.000  C
  C62      1.0000 0.72589  0.74387  0.35314  Biso   1.000  C
  C63      1.0000 0.76289  0.76932  0.25196  Biso   1.000  C
  C64      1.0000 0.76285  0.76788  0.39113  Biso   1.000  C
  C65      1.0000 0.40007  0.67869  0.67840  Biso   1.000  C
  C66      1.0000 0.76445  0.39133  0.76907  Biso   1.000  C
  C67      1.0000 0.91272  0.17085  0.17845  Biso   1.000  C
  C68      1.0000 0.84865  0.24018  0.23777  Biso   1.000  C
  C69      1.0000 0.81165  0.20144  0.33895  Biso   1.000  C
  C70      1.0000 0.81169  0.33913  0.19978  Biso   1.000  C
  C71      1.0000 0.17447  0.17443  0.91251  Biso   1.000  C
  C72      1.0000 0.81008  0.34212  0.82184  Biso   1.000  C
  C73      1.0000 0.17250  0.91146  0.17836  Biso   1.000  C
  C74      1.0000 0.90933  0.17552  0.91340  Biso   1.000  C
  C75      1.0000 0.84843  0.24040  0.84456  Biso   1.000  C
  C76      1.0000 0.40204  0.67959  0.41256  Biso   1.000  C
  C77      1.0000 0.66520  0.41553  0.67751  Biso   1.000  C
  C78      1.0000 0.72611  0.35066  0.74635  Biso   1.000  C
  O27      1.0000 0.93018  0.92802  0.22230  Biso   1.000  O
  O28      1.0000 0.92819  0.92724  0.09572  Biso   1.000  O
  O29      1.0000 0.22367  0.92784  0.92878  Biso   1.000  O
  O30      1.0000 0.09343  0.92764  0.92868  Biso   1.000  O
  O31      1.0000 0.92898  0.09399  0.92709  Biso   1.000  O
  O32      1.0000 0.64436  0.49778  0.36861  Biso   1.000  O
  O33      1.0000 0.64635  0.36843  0.49519  Biso   1.000  O
  O34      1.0000 0.35087  0.49756  0.66214  Biso   1.000  O
  O35      1.0000 0.48110  0.36703  0.66224  Biso   1.000  O
  O36      1.0000 0.64556  0.36733  0.66382  Biso   1.000  O
  O37      1.0000 0.64436  0.66303  0.36861  Biso   1.000  O
  O38      1.0000 0.64635  0.66382  0.49519  Biso   1.000  O
  O39      1.0000 0.35087  0.66321  0.66214  Biso   1.000  O
  O40      1.0000 0.48110  0.66341  0.66224  Biso   1.000  O
  O41      1.0000 0.64556  0.49707  0.66382  Biso   1.000  O
  O42      1.0000 0.93018  0.09328  0.22230  Biso   1.000  O
  O43      1.0000 0.92819  0.22263  0.09572  Biso   1.000  O
  O44      1.0000 0.22367  0.09349  0.92878  Biso   1.000  O
  O45      1.0000 0.09343  0.22403  0.92868  Biso   1.000  O
  O46      1.0000 0.92898  0.22373  0.92709  Biso   1.000  O
  O47      1.0000 0.04196  0.04478  0.04226  Biso   1.000  O
  O48      1.0000 0.09375  0.92812  0.22379  Biso   1.000  O
  O49      1.0000 0.22338  0.92823  0.09394  Biso   1.000  O
  O50      1.0000 0.53258  0.54627  0.54866  Biso   1.000  O
  O51      1.0000 0.48079  0.66293  0.36713  Biso   1.000  O
