data_image0
_cell_length_a       18.2486
_cell_length_b       18.2486
_cell_length_c       18.2486
_cell_angle_alpha    60
_cell_angle_beta     60
_cell_angle_gamma    60

_symmetry_space_group_name_H-M    "P 1"
_symmetry_int_tables_number       1

loop_
  _symmetry_equiv_pos_as_xyz
  'x, y, z'

loop_
  _atom_site_label
  _atom_site_occupancy
  _atom_site_fract_x
  _atom_site_fract_y
  _atom_site_fract_z
  _atom_site_thermal_displace_type
  _atom_site_B_iso_or_equiv
  _atom_site_type_symbol
  C1       1.0000 0.11962  0.29346  0.29346  Biso   1.000  C
  C2       1.0000 0.70654  0.88038  0.70654  Biso   1.000  C
  C3       1.0000 0.29346  0.29346  0.11962  Biso   1.000  C
  C4       1.0000 0.29346  0.29346  0.29346  Biso   1.000  C
  C5       1.0000 0.88038  0.70654  0.70654  Biso   1.000  C
  C6       1.0000 0.29346  0.11962  0.29346  Biso   1.000  C
  C7       1.0000 0.70654  0.70654  0.88038  Biso   1.000  C
  C8       1.0000 0.70654  0.70654  0.70654  Biso   1.000  C
  C9       1.0000 0.15060  0.45640  0.45640  Biso   1.000  C
  C10      1.0000 0.84940  0.54360  0.06340  Biso   1.000  C
  C11      1.0000 0.45640  0.93660  0.45640  Biso   1.000  C
  C12      1.0000 0.54360  0.84940  0.06340  Biso   1.000  C
  C13      1.0000 0.84940  0.54360  0.54360  Biso   1.000  C
  C14      1.0000 0.45640  0.15060  0.93660  Biso   1.000  C
  C15      1.0000 0.45640  0.93660  0.15060  Biso   1.000  C
  C16      1.0000 0.06340  0.54360  0.54360  Biso   1.000  C
  C17      1.0000 0.45640  0.15060  0.45640  Biso   1.000  C
  C18      1.0000 0.93660  0.45640  0.45640  Biso   1.000  C
  C19      1.0000 0.93660  0.15060  0.45640  Biso   1.000  C
  C20      1.0000 0.45640  0.45640  0.15060  Biso   1.000  C
  C21      1.0000 0.06340  0.84940  0.54360  Biso   1.000  C
  C22      1.0000 0.06340  0.54360  0.84940  Biso   1.000  C
  C23      1.0000 0.54360  0.06340  0.84940  Biso   1.000  C
  C24      1.0000 0.54360  0.84940  0.54360  Biso   1.000  C
  C25      1.0000 0.15060  0.93660  0.45640  Biso   1.000  C
  C26      1.0000 0.54360  0.06340  0.54360  Biso   1.000  C
  C27      1.0000 0.93660  0.45640  0.15060  Biso   1.000  C
  C28      1.0000 0.84940  0.06340  0.54360  Biso   1.000  C
  C29      1.0000 0.45640  0.45640  0.93660  Biso   1.000  C
  C30      1.0000 0.54360  0.54360  0.06340  Biso   1.000  C
  C31      1.0000 0.15060  0.45640  0.93660  Biso   1.000  C
  C32      1.0000 0.54360  0.54360  0.84940  Biso   1.000  C
  C33      1.0000 0.89030  0.60970  0.60970  Biso   1.000  C
  C34      1.0000 0.55390  0.55390  0.94610  Biso   1.000  C
  C35      1.0000 0.03650  0.91130  0.52610  Biso   1.000  C
  C36      1.0000 0.47390  0.96350  0.08870  Biso   1.000  C
  C37      1.0000 0.91130  0.52610  0.03650  Biso   1.000  C
  C38      1.0000 0.47390  0.47390  0.08870  Biso   1.000  C
  C39      1.0000 0.96350  0.08870  0.47390  Biso   1.000  C
  C40      1.0000 0.39030  0.10970  0.39030  Biso   1.000  C
  C41      1.0000 0.44610  0.05390  0.44610  Biso   1.000  C
  C42      1.0000 0.52610  0.52610  0.03650  Biso   1.000  C
  C43      1.0000 0.52610  0.91130  0.03650  Biso   1.000  C
  C44      1.0000 0.10970  0.10970  0.39030  Biso   1.000  C
  C45      1.0000 0.05390  0.44610  0.44610  Biso   1.000  C
  C46      1.0000 0.55390  0.94610  0.55390  Biso   1.000  C
  C47      1.0000 0.44610  0.05390  0.05390  Biso   1.000  C
  C48      1.0000 0.94610  0.55390  0.55390  Biso   1.000  C
  C49      1.0000 0.94610  0.55390  0.94610  Biso   1.000  C
  C50      1.0000 0.39030  0.39030  0.10970  Biso   1.000  C
  C51      1.0000 0.03650  0.52610  0.52610  Biso   1.000  C
  C52      1.0000 0.08870  0.47390  0.96350  Biso   1.000  C
  C53      1.0000 0.47390  0.96350  0.47390  Biso   1.000  C
  C54      1.0000 0.47390  0.47390  0.96350  Biso   1.000  C
  C55      1.0000 0.60970  0.89030  0.60970  Biso   1.000  C
  C56      1.0000 0.94610  0.94610  0.55390  Biso   1.000  C
  C57      1.0000 0.05390  0.05390  0.44610  Biso   1.000  C
  C58      1.0000 0.39030  0.10970  0.10970  Biso   1.000  C
  C59      1.0000 0.03650  0.52610  0.91130  Biso   1.000  C
  C60      1.0000 0.44610  0.44610  0.05390  Biso   1.000  C
  C61      1.0000 0.10970  0.39030  0.39030  Biso   1.000  C
  C62      1.0000 0.89030  0.89030  0.60970  Biso   1.000  C
  C63      1.0000 0.60970  0.89030  0.89030  Biso   1.000  C
  C64      1.0000 0.96350  0.47390  0.47390  Biso   1.000  C
  C65      1.0000 0.89030  0.60970  0.89030  Biso   1.000  C
  C66      1.0000 0.08870  0.47390  0.47390  Biso   1.000  C
  C67      1.0000 0.91130  0.52610  0.52610  Biso   1.000  C
  C68      1.0000 0.47390  0.08870  0.47390  Biso   1.000  C
  C69      1.0000 0.47390  0.08870  0.96350  Biso   1.000  C
  C70      1.0000 0.08870  0.96350  0.47390  Biso   1.000  C
  C71      1.0000 0.10970  0.39030  0.10970  Biso   1.000  C
  C72      1.0000 0.96350  0.47390  0.08870  Biso   1.000  C
  C73      1.0000 0.52610  0.52610  0.91130  Biso   1.000  C
  C74      1.0000 0.60970  0.60970  0.89030  Biso   1.000  C
  C75      1.0000 0.52610  0.91130  0.52610  Biso   1.000  C
  C76      1.0000 0.91130  0.03650  0.52610  Biso   1.000  C
  C77      1.0000 0.52610  0.03650  0.91130  Biso   1.000  C
  C78      1.0000 0.05390  0.44610  0.05390  Biso   1.000  C
  C79      1.0000 0.55390  0.94610  0.94610  Biso   1.000  C
  C80      1.0000 0.52610  0.03650  0.52610  Biso   1.000  C
  C81      1.0000 0.63380  0.80300  0.92940  Biso   1.000  C
  C82      1.0000 0.07060  0.19700  0.36620  Biso   1.000  C
  C83      1.0000 0.80300  0.63380  0.63380  Biso   1.000  C
  C84      1.0000 0.80300  0.92940  0.63380  Biso   1.000  C
  C85      1.0000 0.36620  0.07060  0.19700  Biso   1.000  C
  C86      1.0000 0.07060  0.36620  0.19700  Biso   1.000  C
  C87      1.0000 0.63380  0.92940  0.63380  Biso   1.000  C
  C88      1.0000 0.63380  0.80300  0.63380  Biso   1.000  C
  C89      1.0000 0.36620  0.36620  0.19700  Biso   1.000  C
  C90      1.0000 0.36620  0.07060  0.36620  Biso   1.000  C
  C91      1.0000 0.75000  0.75000  0.75000  Biso   1.000  C
  C92      1.0000 0.80300  0.63380  0.92940  Biso   1.000  C
  C93      1.0000 0.92940  0.80300  0.63380  Biso   1.000  C
  C94      1.0000 0.36620  0.19700  0.36620  Biso   1.000  C
  C95      1.0000 0.63380  0.63380  0.80300  Biso   1.000  C
  C96      1.0000 0.19700  0.36620  0.07060  Biso   1.000  C
  C97      1.0000 0.63380  0.63380  0.92940  Biso   1.000  C
  C98      1.0000 0.36620  0.36620  0.07060  Biso   1.000  C
  C99      1.0000 0.63380  0.92940  0.80300  Biso   1.000  C
  C100     1.0000 0.19700  0.07060  0.36620  Biso   1.000  C
  C101     1.0000 0.36620  0.19700  0.07060  Biso   1.000  C
  C102     1.0000 0.92940  0.63380  0.80300  Biso   1.000  C
  C103     1.0000 0.25000  0.25000  0.25000  Biso   1.000  C
  C104     1.0000 0.19700  0.36620  0.36620  Biso   1.000  C
  C105     1.0000 0.92940  0.63380  0.63380  Biso   1.000  C
  C106     1.0000 0.07060  0.36620  0.36620  Biso   1.000  C
  O1       1.0000 0.99436  0.97469  0.87249  Biso   1.000  O
  O2       1.0000 0.99441  0.14705  0.87244  Biso   1.000  O
  O3       1.0000 0.16677  0.97469  0.87249  Biso   1.000  O
  O4       1.0000 0.99441  0.97464  0.04484  Biso   1.000  O
  O5       1.0000 0.57792  0.56354  0.46134  Biso   1.000  O
  O6       1.0000 0.57787  0.39119  0.46139  Biso   1.000  O
  O7       1.0000 0.40552  0.56354  0.46134  Biso   1.000  O
  O8       1.0000 0.57787  0.56359  0.28899  Biso   1.000  O
  O9       1.0000 0.81491  0.17451  0.69398  Biso   1.000  O
  O10      1.0000 0.19444  0.79597  0.69198  Biso   1.000  O
  O11      1.0000 0.81431  0.79697  0.07231  Biso   1.000  O
  O12      1.0000 0.81592  0.31060  0.69298  Biso   1.000  O
  O13      1.0000 0.81392  0.31160  0.07251  Biso   1.000  O
  O14      1.0000 0.19425  0.31041  0.69238  Biso   1.000  O
  O15      1.0000 0.32492  0.79618  0.07230  Biso   1.000  O
  O16      1.0000 0.32593  0.79418  0.69377  Biso   1.000  O
  O17      1.0000 0.32472  0.17452  0.69476  Biso   1.000  O
  O18      1.0000 0.18882  0.79518  0.20840  Biso   1.000  O
  O19      1.0000 0.81029  0.17471  0.20941  Biso   1.000  O
  O20      1.0000 0.81129  0.79458  0.20821  Biso   1.000  O
  O21      1.0000 0.75738  0.36373  0.63985  Biso   1.000  O
  O22      1.0000 0.37784  0.74226  0.64185  Biso   1.000  O
  O23      1.0000 0.75798  0.74126  0.26152  Biso   1.000  O
  O24      1.0000 0.75637  0.22764  0.64085  Biso   1.000  O
  O25      1.0000 0.75837  0.22663  0.26132  Biso   1.000  O
  O26      1.0000 0.37803  0.22783  0.64146  Biso   1.000  O
  O27      1.0000 0.24737  0.74205  0.26153  Biso   1.000  O
  O28      1.0000 0.24636  0.74405  0.64006  Biso   1.000  O
  O29      1.0000 0.24756  0.36372  0.63907  Biso   1.000  O
  O30      1.0000 0.38346  0.74305  0.12543  Biso   1.000  O
  O31      1.0000 0.76200  0.36352  0.12443  Biso   1.000  O
  O32      1.0000 0.76100  0.74366  0.12562  Biso   1.000  O
  O33      1.0000 0.84235  0.21291  0.72043  Biso   1.000  O
  O34      1.0000 0.90071  0.15455  0.77879  Biso   1.000  O
  O35      1.0000 0.23263  0.82263  0.11070  Biso   1.000  O
  O36      1.0000 0.17427  0.88099  0.05234  Biso   1.000  O
  O37      1.0000 0.72994  0.32533  0.61341  Biso   1.000  O
  O38      1.0000 0.67158  0.38369  0.55505  Biso   1.000  O
  O39      1.0000 0.33965  0.71560  0.22313  Biso   1.000  O
  O40      1.0000 0.39802  0.65724  0.28149  Biso   1.000  O
  O41      1.0000 0.84215  0.82243  0.11090  Biso   1.000  O
  O42      1.0000 0.90024  0.88052  0.05282  Biso   1.000  O
  O43      1.0000 0.23282  0.21311  0.72023  Biso   1.000  O
  O44      1.0000 0.17474  0.15502  0.77831  Biso   1.000  O
  O45      1.0000 0.73013  0.71580  0.22293  Biso   1.000  O
  O46      1.0000 0.67205  0.65772  0.28102  Biso   1.000  O
  O47      1.0000 0.33946  0.32513  0.61361  Biso   1.000  O
  O48      1.0000 0.39755  0.38321  0.55552  Biso   1.000  O
  O49      1.0000 0.23303  0.82223  0.72003  Biso   1.000  O
  O50      1.0000 0.17495  0.88031  0.77811  Biso   1.000  O
  O51      1.0000 0.84195  0.21331  0.11110  Biso   1.000  O
  O52      1.0000 0.90003  0.15522  0.05302  Biso   1.000  O
  O53      1.0000 0.33926  0.71600  0.61381  Biso   1.000  O
  O54      1.0000 0.39734  0.65792  0.55572  Biso   1.000  O
  O55      1.0000 0.73034  0.32492  0.22273  Biso   1.000  O
  O56      1.0000 0.67225  0.38301  0.28082  Biso   1.000  O
  O57      1.0000 0.92319  0.07076  0.79967  Biso   1.000  O
  O58      1.0000 0.92126  0.90347  0.96939  Biso   1.000  O
  O59      1.0000 0.09007  0.90311  0.80009  Biso   1.000  O
  O60      1.0000 0.92160  0.19497  0.80127  Biso   1.000  O
  O61      1.0000 0.09131  0.19447  0.79934  Biso   1.000  O
  O62      1.0000 0.92201  0.19533  0.96814  Biso   1.000  O
  O63      1.0000 0.21469  0.90188  0.96856  Biso   1.000  O
  O64      1.0000 0.21419  0.07160  0.80127  Biso   1.000  O
  O65      1.0000 0.21505  0.90230  0.80091  Biso   1.000  O
  O66      1.0000 0.09048  0.90347  0.09276  Biso   1.000  O
  O67      1.0000 0.92319  0.90154  0.09226  Biso   1.000  O
  O68      1.0000 0.92283  0.07035  0.09312  Biso   1.000  O
  O69      1.0000 0.64910  0.46747  0.53416  Biso   1.000  O
  O70      1.0000 0.65102  0.63476  0.36444  Biso   1.000  O
  O71      1.0000 0.48222  0.63512  0.53374  Biso   1.000  O
  O72      1.0000 0.65069  0.34327  0.53257  Biso   1.000  O
  O73      1.0000 0.48097  0.34376  0.53450  Biso   1.000  O
  O74      1.0000 0.65027  0.34291  0.36570  Biso   1.000  O
  O75      1.0000 0.35760  0.63636  0.36528  Biso   1.000  O
  O76      1.0000 0.35810  0.46664  0.53257  Biso   1.000  O
  O77      1.0000 0.35724  0.63594  0.53293  Biso   1.000  O
  O78      1.0000 0.48180  0.63476  0.24107  Biso   1.000  O
  O79      1.0000 0.64909  0.63669  0.24157  Biso   1.000  O
  O80      1.0000 0.64945  0.46789  0.24072  Biso   1.000  O
  O81      1.0000 0.03749  0.01777  0.91556  Biso   1.000  O
  O82      1.0000 0.53480  0.52046  0.41827  Biso   1.000  O
  O83      1.0000 0.11825  0.81880  0.71333  Biso   1.000  O
  O84      1.0000 0.35793  0.81554  0.71660  Biso   1.000  O
  O85      1.0000 0.45403  0.71944  0.62050  Biso   1.000  O
  O86      1.0000 0.21435  0.72270  0.61724  Biso   1.000  O
  O87      1.0000 0.35673  0.09834  0.71784  Biso   1.000  O
  O88      1.0000 0.45421  0.19582  0.62036  Biso   1.000  O
  O89      1.0000 0.83540  0.82004  0.99614  Biso   1.000  O
  O90      1.0000 0.73792  0.72256  0.09361  Biso   1.000  O
  O91      1.0000 0.83842  0.34261  0.71466  Biso   1.000  O
  O92      1.0000 0.83527  0.34361  0.99632  Biso   1.000  O
  O93      1.0000 0.45965  0.72138  0.09342  Biso   1.000  O
  O94      1.0000 0.73917  0.43971  0.09242  Biso   1.000  O
  O95      1.0000 0.11808  0.34241  0.71347  Biso   1.000  O
  O96      1.0000 0.21555  0.43989  0.61599  Biso   1.000  O
  O97      1.0000 0.83436  0.81567  0.24022  Biso   1.000  O
  O98      1.0000 0.73688  0.71819  0.33770  Biso   1.000  O
  O99      1.0000 0.21535  0.71955  0.33772  Biso   1.000  O
  O100     1.0000 0.83311  0.09853  0.24141  Biso   1.000  O
  O101     1.0000 0.73701  0.19462  0.33751  Biso   1.000  O
  O102     1.0000 0.11264  0.81685  0.24042  Biso   1.000  O
  O103     1.0000 0.73387  0.19562  0.61918  Biso   1.000  O
  O104     1.0000 0.83658  0.09832  0.71648  Biso   1.000  O
  O105     1.0000 0.73571  0.43991  0.61736  Biso   1.000  O
