data_image0
_cell_length_a       18.0449
_cell_length_b       18.0449
_cell_length_c       18.0449
_cell_angle_alpha    60
_cell_angle_beta     60
_cell_angle_gamma    60

_symmetry_space_group_name_H-M    "P 1"
_symmetry_int_tables_number       1

loop_
  _symmetry_equiv_pos_as_xyz
  'x, y, z'

loop_
  _atom_site_label
  _atom_site_occupancy
  _atom_site_fract_x
  _atom_site_fract_y
  _atom_site_fract_z
  _atom_site_thermal_displace_type
  _atom_site_B_iso_or_equiv
  _atom_site_type_symbol
  C1       1.0000 0.38137  0.20621  0.20621  Biso   1.000  C
  C2       1.0000 0.20621  0.38137  0.20621  Biso   1.000  C
  C3       1.0000 0.20621  0.20621  0.38137  Biso   1.000  C
  C4       1.0000 0.20621  0.20621  0.20621  Biso   1.000  C
  C5       1.0000 0.79379  0.61863  0.79379  Biso   1.000  C
  C6       1.0000 0.61863  0.79379  0.79379  Biso   1.000  C
  C7       1.0000 0.79379  0.79379  0.61863  Biso   1.000  C
  C8       1.0000 0.79379  0.79379  0.79379  Biso   1.000  C
  C9       1.0000 0.53160  0.41760  0.02540  Biso   1.000  C
  C10      1.0000 0.41760  0.53160  0.02540  Biso   1.000  C
  C11      1.0000 0.02540  0.02540  0.53160  Biso   1.000  C
  C12      1.0000 0.02540  0.02540  0.41760  Biso   1.000  C
  C13      1.0000 0.53160  0.02540  0.02540  Biso   1.000  C
  C14      1.0000 0.41760  0.02540  0.02540  Biso   1.000  C
  C15      1.0000 0.02540  0.53160  0.41760  Biso   1.000  C
  C16      1.0000 0.02540  0.41760  0.53160  Biso   1.000  C
  C17      1.0000 0.53160  0.02540  0.41760  Biso   1.000  C
  C18      1.0000 0.41760  0.02540  0.53160  Biso   1.000  C
  C19      1.0000 0.02540  0.41760  0.02540  Biso   1.000  C
  C20      1.0000 0.02540  0.53160  0.02540  Biso   1.000  C
  C21      1.0000 0.58240  0.46840  0.97460  Biso   1.000  C
  C22      1.0000 0.46840  0.58240  0.97460  Biso   1.000  C
  C23      1.0000 0.97460  0.97460  0.46840  Biso   1.000  C
  C24      1.0000 0.97460  0.97460  0.58240  Biso   1.000  C
  C25      1.0000 0.97460  0.46840  0.97460  Biso   1.000  C
  C26      1.0000 0.97460  0.58240  0.97460  Biso   1.000  C
  C27      1.0000 0.46840  0.97460  0.58240  Biso   1.000  C
  C28      1.0000 0.58240  0.97460  0.46840  Biso   1.000  C
  C29      1.0000 0.97460  0.46840  0.58240  Biso   1.000  C
  C30      1.0000 0.97460  0.58240  0.46840  Biso   1.000  C
  C31      1.0000 0.58240  0.97460  0.97460  Biso   1.000  C
  C32      1.0000 0.46840  0.97460  0.97460  Biso   1.000  C
  C33      1.0000 0.44560  0.44560  0.05440  Biso   1.000  C
  C34      1.0000 0.38970  0.38970  0.11030  Biso   1.000  C
  C35      1.0000 0.05440  0.05440  0.44560  Biso   1.000  C
  C36      1.0000 0.11030  0.11030  0.38970  Biso   1.000  C
  C37      1.0000 0.44560  0.05440  0.05440  Biso   1.000  C
  C38      1.0000 0.38970  0.11030  0.11030  Biso   1.000  C
  C39      1.0000 0.05440  0.44560  0.44560  Biso   1.000  C
  C40      1.0000 0.11030  0.38970  0.38970  Biso   1.000  C
  C41      1.0000 0.44560  0.05440  0.44560  Biso   1.000  C
  C42      1.0000 0.38970  0.11030  0.38970  Biso   1.000  C
  C43      1.0000 0.05440  0.44560  0.05440  Biso   1.000  C
  C44      1.0000 0.11030  0.38970  0.11030  Biso   1.000  C
  C45      1.0000 0.55440  0.55440  0.94560  Biso   1.000  C
  C46      1.0000 0.61030  0.61030  0.88970  Biso   1.000  C
  C47      1.0000 0.94560  0.94560  0.55440  Biso   1.000  C
  C48      1.0000 0.88970  0.88970  0.61030  Biso   1.000  C
  C49      1.0000 0.94560  0.55440  0.94560  Biso   1.000  C
  C50      1.0000 0.88970  0.61030  0.88970  Biso   1.000  C
  C51      1.0000 0.55440  0.94560  0.55440  Biso   1.000  C
  C52      1.0000 0.61030  0.88970  0.61030  Biso   1.000  C
  C53      1.0000 0.94560  0.55440  0.55440  Biso   1.000  C
  C54      1.0000 0.88970  0.61030  0.61030  Biso   1.000  C
  C55      1.0000 0.55440  0.94560  0.94560  Biso   1.000  C
  C56      1.0000 0.61030  0.88970  0.88970  Biso   1.000  C
  C57      1.0000 0.25000  0.25000  0.25000  Biso   1.000  C
  C58      1.0000 0.75000  0.75000  0.75000  Biso   1.000  C
  C59      1.0000 0.42550  0.30590  0.13430  Biso   1.000  C
  C60      1.0000 0.30590  0.42550  0.13430  Biso   1.000  C
  C61      1.0000 0.13430  0.13430  0.42550  Biso   1.000  C
  C62      1.0000 0.13430  0.13430  0.30590  Biso   1.000  C
  C63      1.0000 0.42550  0.13430  0.13430  Biso   1.000  C
  C64      1.0000 0.30590  0.13430  0.13430  Biso   1.000  C
  C65      1.0000 0.13430  0.42550  0.30590  Biso   1.000  C
  C66      1.0000 0.13430  0.30590  0.42550  Biso   1.000  C
  C67      1.0000 0.42550  0.13430  0.30590  Biso   1.000  C
  C68      1.0000 0.30590  0.13430  0.42550  Biso   1.000  C
  C69      1.0000 0.13430  0.30590  0.13430  Biso   1.000  C
  C70      1.0000 0.13430  0.42550  0.13430  Biso   1.000  C
  C71      1.0000 0.69410  0.57450  0.86570  Biso   1.000  C
  C72      1.0000 0.57450  0.69410  0.86570  Biso   1.000  C
  C73      1.0000 0.86570  0.86570  0.57450  Biso   1.000  C
  C74      1.0000 0.86570  0.86570  0.69410  Biso   1.000  C
  C75      1.0000 0.86570  0.57450  0.86570  Biso   1.000  C
  C76      1.0000 0.86570  0.69410  0.86570  Biso   1.000  C
  C77      1.0000 0.57450  0.86570  0.69410  Biso   1.000  C
  C78      1.0000 0.69410  0.86570  0.57450  Biso   1.000  C
  C79      1.0000 0.86570  0.57450  0.69410  Biso   1.000  C
  C80      1.0000 0.86570  0.69410  0.57450  Biso   1.000  C
  C81      1.0000 0.69410  0.86570  0.86570  Biso   1.000  C
  C82      1.0000 0.57450  0.86570  0.86570  Biso   1.000  C
  C83      1.0000 0.56398  0.34055  0.04774  Biso   1.000  C
  C84      1.0000 0.34055  0.56398  0.04774  Biso   1.000  C
  C85      1.0000 0.04774  0.04774  0.56398  Biso   1.000  C
  C86      1.0000 0.04774  0.04774  0.34055  Biso   1.000  C
  C87      1.0000 0.34055  0.04774  0.04774  Biso   1.000  C
  C88      1.0000 0.04774  0.56398  0.34055  Biso   1.000  C
  C89      1.0000 0.04774  0.34055  0.56398  Biso   1.000  C
  C90      1.0000 0.56398  0.04774  0.34055  Biso   1.000  C
  C91      1.0000 0.34055  0.04774  0.56398  Biso   1.000  C
  C92      1.0000 0.04774  0.34055  0.04774  Biso   1.000  C
  C93      1.0000 0.04774  0.56398  0.04774  Biso   1.000  C
  C94      1.0000 0.65945  0.43602  0.95226  Biso   1.000  C
  C95      1.0000 0.43602  0.65945  0.95226  Biso   1.000  C
  C96      1.0000 0.95226  0.95226  0.43602  Biso   1.000  C
  C97      1.0000 0.95226  0.95226  0.65945  Biso   1.000  C
  C98      1.0000 0.95226  0.43602  0.95226  Biso   1.000  C
  C99      1.0000 0.95226  0.65945  0.95226  Biso   1.000  C
  C100     1.0000 0.43602  0.95226  0.65945  Biso   1.000  C
  C101     1.0000 0.65945  0.95226  0.43602  Biso   1.000  C
  C102     1.0000 0.95226  0.65945  0.43602  Biso   1.000  C
  C103     1.0000 0.65945  0.95226  0.95226  Biso   1.000  C
  C104     1.0000 0.43602  0.95226  0.95226  Biso   1.000  C
  C105     1.0000 0.95226  0.43602  0.65945  Biso   1.000  C
  C106     1.0000 0.56398  0.04774  0.04774  Biso   1.000  C
  O1       1.0000 0.00000  0.00000  0.00000  Biso   1.000  O
  O2       1.0000 0.82352  1.00000  0.17648  Biso   1.000  O
  O3       1.0000 0.82352  0.17648  0.00000  Biso   1.000  O
  O4       1.0000 0.82352  0.00000  0.00000  Biso   1.000  O
  O5       1.0000 0.25677  0.58108  0.58108  Biso   1.000  O
  O6       1.0000 0.43325  0.58108  0.40460  Biso   1.000  O
  O7       1.0000 0.43325  0.58108  0.58108  Biso   1.000  O
  O8       1.0000 0.43325  0.40460  0.58108  Biso   1.000  O
  O9       1.0000 0.18786  0.83649  0.13917  Biso   1.000  O
  O10      1.0000 0.97701  0.83649  0.35002  Biso   1.000  O
  O11      1.0000 0.67433  0.35002  0.83649  Biso   1.000  O
  O12      1.0000 0.67433  0.13917  0.83649  Biso   1.000  O
  O13      1.0000 0.67433  0.13917  0.35002  Biso   1.000  O
  O14      1.0000 0.67433  0.35002  0.13917  Biso   1.000  O
  O15      1.0000 0.18786  0.83649  0.83649  Biso   1.000  O
  O16      1.0000 0.97701  0.83649  0.83649  Biso   1.000  O
  O17      1.0000 0.97701  0.35002  0.83649  Biso   1.000  O
  O18      1.0000 0.18786  0.13917  0.83649  Biso   1.000  O
  O19      1.0000 0.67433  0.83649  0.35002  Biso   1.000  O
  O20      1.0000 0.67433  0.83649  0.13917  Biso   1.000  O
  O21      1.0000 0.06891  0.74459  0.44192  Biso   1.000  O
  O22      1.0000 0.27976  0.74459  0.23106  Biso   1.000  O
  O23      1.0000 0.58244  0.44192  0.74459  Biso   1.000  O
  O24      1.0000 0.58244  0.23106  0.74459  Biso   1.000  O
  O25      1.0000 0.58244  0.74459  0.23106  Biso   1.000  O
  O26      1.0000 0.58244  0.74459  0.44192  Biso   1.000  O
  O27      1.0000 0.06891  0.44192  0.74459  Biso   1.000  O
  O28      1.0000 0.27976  0.23106  0.74459  Biso   1.000  O
  O29      1.0000 0.27976  0.74459  0.74459  Biso   1.000  O
  O30      1.0000 0.06891  0.74459  0.74459  Biso   1.000  O
  O31      1.0000 0.58244  0.44192  0.23106  Biso   1.000  O
  O32      1.0000 0.58244  0.23106  0.44192  Biso   1.000  O
  O33      1.0000 0.16030  0.81737  0.20496  Biso   1.000  O
  O34      1.0000 0.04281  0.81737  0.32246  Biso   1.000  O
  O35      1.0000 0.65521  0.32246  0.81737  Biso   1.000  O
  O36      1.0000 0.65521  0.20496  0.81737  Biso   1.000  O
  O37      1.0000 0.65521  0.20496  0.32246  Biso   1.000  O
  O38      1.0000 0.65521  0.32246  0.20496  Biso   1.000  O
  O39      1.0000 0.16030  0.81737  0.81737  Biso   1.000  O
  O40      1.0000 0.04281  0.81737  0.81737  Biso   1.000  O
  O41      1.0000 0.04281  0.32246  0.81737  Biso   1.000  O
  O42      1.0000 0.16030  0.20496  0.81737  Biso   1.000  O
  O43      1.0000 0.65521  0.81737  0.32246  Biso   1.000  O
  O44      1.0000 0.65521  0.81737  0.20496  Biso   1.000  O
  O45      1.0000 0.09647  0.76371  0.37612  Biso   1.000  O
  O46      1.0000 0.21396  0.76371  0.25862  Biso   1.000  O
  O47      1.0000 0.60156  0.37612  0.76371  Biso   1.000  O
  O48      1.0000 0.60156  0.25862  0.76371  Biso   1.000  O
  O49      1.0000 0.60156  0.76371  0.25862  Biso   1.000  O
  O50      1.0000 0.60156  0.76371  0.37612  Biso   1.000  O
  O51      1.0000 0.09647  0.37612  0.76371  Biso   1.000  O
  O52      1.0000 0.21396  0.25862  0.76371  Biso   1.000  O
  O53      1.0000 0.21396  0.76371  0.76371  Biso   1.000  O
  O54      1.0000 0.09647  0.76371  0.76371  Biso   1.000  O
  O55      1.0000 0.60156  0.37612  0.25862  Biso   1.000  O
  O56      1.0000 0.60156  0.25862  0.37612  Biso   1.000  O
  O57      1.0000 0.00792  0.90384  0.18440  Biso   1.000  O
  O58      1.0000 0.06668  0.84508  0.24316  Biso   1.000  O
  O59      1.0000 0.72736  0.18440  0.90384  Biso   1.000  O
  O60      1.0000 0.66860  0.24316  0.84508  Biso   1.000  O
  O61      1.0000 0.72736  0.18440  0.18440  Biso   1.000  O
  O62      1.0000 0.66860  0.24316  0.24316  Biso   1.000  O
  O63      1.0000 0.00792  0.90384  0.90384  Biso   1.000  O
  O64      1.0000 0.06668  0.84508  0.84508  Biso   1.000  O
  O65      1.0000 0.00792  0.18440  0.90384  Biso   1.000  O
  O66      1.0000 0.06668  0.24316  0.84508  Biso   1.000  O
  O67      1.0000 0.72736  0.90384  0.18440  Biso   1.000  O
  O68      1.0000 0.66860  0.84508  0.24316  Biso   1.000  O
  O69      1.0000 0.24885  0.67724  0.39668  Biso   1.000  O
  O70      1.0000 0.19009  0.73600  0.33792  Biso   1.000  O
  O71      1.0000 0.52941  0.39668  0.67724  Biso   1.000  O
  O72      1.0000 0.58817  0.33792  0.73600  Biso   1.000  O
  O73      1.0000 0.52941  0.67724  0.39668  Biso   1.000  O
  O74      1.0000 0.58817  0.73600  0.33792  Biso   1.000  O
  O75      1.0000 0.24885  0.39668  0.67724  Biso   1.000  O
  O76      1.0000 0.19009  0.33792  0.73600  Biso   1.000  O
  O77      1.0000 0.24885  0.67724  0.67724  Biso   1.000  O
  O78      1.0000 0.19009  0.73600  0.73600  Biso   1.000  O
  O79      1.0000 0.52941  0.39668  0.39668  Biso   1.000  O
  O80      1.0000 0.58817  0.33792  0.33792  Biso   1.000  O
  O81      1.0000 0.04771  0.92633  0.09964  Biso   1.000  O
  O82      1.0000 0.92315  0.92633  0.22420  Biso   1.000  O
  O83      1.0000 0.74985  0.22420  0.92633  Biso   1.000  O
  O84      1.0000 0.74985  0.09964  0.92633  Biso   1.000  O
  O85      1.0000 0.74985  0.09964  0.22420  Biso   1.000  O
  O86      1.0000 0.74985  0.22420  0.09964  Biso   1.000  O
  O87      1.0000 0.04771  0.92633  0.92633  Biso   1.000  O
  O88      1.0000 0.92315  0.92633  0.92633  Biso   1.000  O
  O89      1.0000 0.92315  0.22420  0.92633  Biso   1.000  O
  O90      1.0000 0.04771  0.09964  0.92633  Biso   1.000  O
  O91      1.0000 0.74985  0.92633  0.22420  Biso   1.000  O
  O92      1.0000 0.74985  0.92633  0.09964  Biso   1.000  O
  O93      1.0000 0.20906  0.65475  0.48145  Biso   1.000  O
  O94      1.0000 0.33361  0.65475  0.35689  Biso   1.000  O
  O95      1.0000 0.50692  0.48145  0.65475  Biso   1.000  O
  O96      1.0000 0.50692  0.35689  0.65475  Biso   1.000  O
  O97      1.0000 0.50692  0.65475  0.35689  Biso   1.000  O
  O98      1.0000 0.50692  0.65475  0.48145  Biso   1.000  O
  O99      1.0000 0.20906  0.48145  0.65475  Biso   1.000  O
  O100     1.0000 0.33361  0.35689  0.65475  Biso   1.000  O
  O101     1.0000 0.33361  0.65475  0.65475  Biso   1.000  O
  O102     1.0000 0.20906  0.65475  0.65475  Biso   1.000  O
  O103     1.0000 0.50692  0.48145  0.35689  Biso   1.000  O
  O104     1.0000 0.50692  0.35689  0.48145  Biso   1.000  O
  O105     1.0000 0.86764  0.04412  0.04412  Biso   1.000  O
