data_image0
_cell_length_a       18.0703
_cell_length_b       18.0703
_cell_length_c       18.0703
_cell_angle_alpha    60
_cell_angle_beta     60
_cell_angle_gamma    60

_symmetry_space_group_name_H-M    "P 1"
_symmetry_int_tables_number       1

loop_
  _symmetry_equiv_pos_as_xyz
  'x, y, z'

loop_
  _atom_site_label
  _atom_site_occupancy
  _atom_site_fract_x
  _atom_site_fract_y
  _atom_site_fract_z
  _atom_site_thermal_displace_type
  _atom_site_B_iso_or_equiv
  _atom_site_type_symbol
  C1       1.0000 0.29350  0.29350  0.29350  Biso   1.000  C
  C2       1.0000 0.29350  0.29350  0.11950  Biso   1.000  C
  C3       1.0000 0.29350  0.11950  0.29350  Biso   1.000  C
  C4       1.0000 0.11950  0.29350  0.29350  Biso   1.000  C
  C5       1.0000 0.70650  0.70650  0.70650  Biso   1.000  C
  C6       1.0000 0.70650  0.70650  0.88050  Biso   1.000  C
  C7       1.0000 0.88050  0.70650  0.70650  Biso   1.000  C
  C8       1.0000 0.70650  0.88050  0.70650  Biso   1.000  C
  C9       1.0000 0.47340  0.47340  0.96080  Biso   1.000  C
  C10      1.0000 0.47340  0.47340  0.09240  Biso   1.000  C
  C11      1.0000 0.96080  0.09240  0.47340  Biso   1.000  C
  C12      1.0000 0.09240  0.96080  0.47340  Biso   1.000  C
  C13      1.0000 0.47340  0.96080  0.09240  Biso   1.000  C
  C14      1.0000 0.47340  0.09240  0.96080  Biso   1.000  C
  C15      1.0000 0.96080  0.47340  0.47340  Biso   1.000  C
  C16      1.0000 0.09240  0.47340  0.47340  Biso   1.000  C
  C17      1.0000 0.47340  0.09240  0.47340  Biso   1.000  C
  C18      1.0000 0.47340  0.96080  0.47340  Biso   1.000  C
  C19      1.0000 0.96080  0.47340  0.09240  Biso   1.000  C
  C20      1.0000 0.09240  0.47340  0.96080  Biso   1.000  C
  C21      1.0000 0.52660  0.52660  0.03920  Biso   1.000  C
  C22      1.0000 0.52660  0.52660  0.90760  Biso   1.000  C
  C23      1.0000 0.90760  0.03920  0.52660  Biso   1.000  C
  C24      1.0000 0.03920  0.90760  0.52660  Biso   1.000  C
  C25      1.0000 0.03920  0.52660  0.90760  Biso   1.000  C
  C26      1.0000 0.90760  0.52660  0.03920  Biso   1.000  C
  C27      1.0000 0.52660  0.03920  0.52660  Biso   1.000  C
  C28      1.0000 0.52660  0.90760  0.52660  Biso   1.000  C
  C29      1.0000 0.90760  0.52660  0.52660  Biso   1.000  C
  C30      1.0000 0.03920  0.52660  0.52660  Biso   1.000  C
  C31      1.0000 0.52660  0.03920  0.90760  Biso   1.000  C
  C32      1.0000 0.52660  0.90760  0.03920  Biso   1.000  C
  C33      1.0000 0.38820  0.38820  0.11180  Biso   1.000  C
  C34      1.0000 0.44590  0.44590  0.05410  Biso   1.000  C
  C35      1.0000 0.11180  0.11180  0.38820  Biso   1.000  C
  C36      1.0000 0.05410  0.05410  0.44590  Biso   1.000  C
  C37      1.0000 0.38820  0.11180  0.11180  Biso   1.000  C
  C38      1.0000 0.44590  0.05410  0.05410  Biso   1.000  C
  C39      1.0000 0.11180  0.38820  0.38820  Biso   1.000  C
  C40      1.0000 0.05410  0.44590  0.44590  Biso   1.000  C
  C41      1.0000 0.38820  0.11180  0.38820  Biso   1.000  C
  C42      1.0000 0.44590  0.05410  0.44590  Biso   1.000  C
  C43      1.0000 0.11180  0.38820  0.11180  Biso   1.000  C
  C44      1.0000 0.05410  0.44590  0.05410  Biso   1.000  C
  C45      1.0000 0.61180  0.61180  0.88820  Biso   1.000  C
  C46      1.0000 0.55410  0.55410  0.94590  Biso   1.000  C
  C47      1.0000 0.88820  0.88820  0.61180  Biso   1.000  C
  C48      1.0000 0.94590  0.94590  0.55410  Biso   1.000  C
  C49      1.0000 0.88820  0.61180  0.88820  Biso   1.000  C
  C50      1.0000 0.94590  0.55410  0.94590  Biso   1.000  C
  C51      1.0000 0.61180  0.88820  0.61180  Biso   1.000  C
  C52      1.0000 0.55410  0.94590  0.55410  Biso   1.000  C
  C53      1.0000 0.88820  0.61180  0.61180  Biso   1.000  C
  C54      1.0000 0.94590  0.55410  0.55410  Biso   1.000  C
  C55      1.0000 0.61180  0.88820  0.88820  Biso   1.000  C
  C56      1.0000 0.55410  0.94590  0.94590  Biso   1.000  C
  C57      1.0000 0.25000  0.25000  0.25000  Biso   1.000  C
  C58      1.0000 0.75000  0.75000  0.75000  Biso   1.000  C
  C59      1.0000 0.36569  0.36569  0.19789  Biso   1.000  C
  C60      1.0000 0.36569  0.36569  0.07073  Biso   1.000  C
  C61      1.0000 0.19789  0.07073  0.36569  Biso   1.000  C
  C62      1.0000 0.07073  0.19789  0.36569  Biso   1.000  C
  C63      1.0000 0.36569  0.19789  0.07073  Biso   1.000  C
  C64      1.0000 0.36569  0.07073  0.19789  Biso   1.000  C
  C65      1.0000 0.19789  0.36569  0.36569  Biso   1.000  C
  C66      1.0000 0.07073  0.36569  0.36569  Biso   1.000  C
  C67      1.0000 0.36569  0.07073  0.36569  Biso   1.000  C
  C68      1.0000 0.36569  0.19789  0.36569  Biso   1.000  C
  C69      1.0000 0.19789  0.36569  0.07073  Biso   1.000  C
  C70      1.0000 0.07073  0.36569  0.19789  Biso   1.000  C
  C71      1.0000 0.63431  0.63431  0.80211  Biso   1.000  C
  C72      1.0000 0.63431  0.63431  0.92927  Biso   1.000  C
  C73      1.0000 0.92927  0.80211  0.63431  Biso   1.000  C
  C74      1.0000 0.80211  0.92927  0.63431  Biso   1.000  C
  C75      1.0000 0.80211  0.63431  0.92927  Biso   1.000  C
  C76      1.0000 0.92927  0.63431  0.80211  Biso   1.000  C
  C77      1.0000 0.63431  0.80211  0.63431  Biso   1.000  C
  C78      1.0000 0.63431  0.92927  0.63431  Biso   1.000  C
  C79      1.0000 0.92927  0.63431  0.63431  Biso   1.000  C
  C80      1.0000 0.80211  0.63431  0.63431  Biso   1.000  C
  C81      1.0000 0.63431  0.80211  0.92927  Biso   1.000  C
  C82      1.0000 0.63431  0.92927  0.80211  Biso   1.000  C
  C83      1.0000 0.45110  0.45110  0.92847  Biso   1.000  C
  C84      1.0000 0.45110  0.45110  0.16934  Biso   1.000  C
  C85      1.0000 0.92847  0.16934  0.45110  Biso   1.000  C
  C86      1.0000 0.16934  0.92847  0.45110  Biso   1.000  C
  C87      1.0000 0.45110  0.92847  0.16934  Biso   1.000  C
  C88      1.0000 0.45110  0.16934  0.92847  Biso   1.000  C
  C89      1.0000 0.92847  0.45110  0.45110  Biso   1.000  C
  C90      1.0000 0.16934  0.45110  0.45110  Biso   1.000  C
  C91      1.0000 0.45110  0.16934  0.45110  Biso   1.000  C
  C92      1.0000 0.45110  0.92847  0.45110  Biso   1.000  C
  C93      1.0000 0.92847  0.45110  0.16934  Biso   1.000  C
  C94      1.0000 0.16934  0.45110  0.92847  Biso   1.000  C
  C95      1.0000 0.54890  0.54890  0.07153  Biso   1.000  C
  C96      1.0000 0.54890  0.54890  0.83066  Biso   1.000  C
  C97      1.0000 0.83066  0.07153  0.54890  Biso   1.000  C
  C98      1.0000 0.07153  0.83066  0.54890  Biso   1.000  C
  C99      1.0000 0.07153  0.54890  0.83066  Biso   1.000  C
  C100     1.0000 0.83066  0.54890  0.07153  Biso   1.000  C
  C101     1.0000 0.54890  0.07153  0.54890  Biso   1.000  C
  C102     1.0000 0.54890  0.83066  0.54890  Biso   1.000  C
  C103     1.0000 0.83066  0.54890  0.54890  Biso   1.000  C
  C104     1.0000 0.07153  0.54890  0.54890  Biso   1.000  C
  C105     1.0000 0.54890  0.07153  0.83066  Biso   1.000  C
  C106     1.0000 0.54890  0.83066  0.07153  Biso   1.000  C
  O1       1.0000 0.62834  0.43955  0.40666  Biso   1.000  O
  O2       1.0000 0.03501  0.84621  0.99998  Biso   1.000  O
  O3       1.0000 0.85890  0.02233  0.99998  Biso   1.000  O
  O4       1.0000 0.45223  0.61566  0.40666  Biso   1.000  O
  O5       1.0000 0.45203  0.43935  0.58291  Biso   1.000  O
  O6       1.0000 0.45216  0.43948  0.40645  Biso   1.000  O
  O7       1.0000 0.03521  0.02253  0.82372  Biso   1.000  O
  O8       1.0000 0.03508  0.02240  0.00019  Biso   1.000  O
  O9       1.0000 0.28787  0.79036  0.54948  Biso   1.000  O
  O10      1.0000 0.28472  0.58213  0.76554  Biso   1.000  O
  O11      1.0000 0.29153  0.78836  0.24392  Biso   1.000  O
  O12      1.0000 0.29102  0.58095  0.23857  Biso   1.000  O
  O13      1.0000 0.80215  0.58155  0.24574  Biso   1.000  O
  O14      1.0000 0.68420  0.18669  0.85716  Biso   1.000  O
  O15      1.0000 0.89243  0.18983  0.64110  Biso   1.000  O
  O16      1.0000 0.68620  0.18304  0.16272  Biso   1.000  O
  O17      1.0000 0.89361  0.18354  0.16807  Biso   1.000  O
  O18      1.0000 0.89300  0.67241  0.16090  Biso   1.000  O
  O19      1.0000 0.19937  0.67152  0.85716  Biso   1.000  O
  O20      1.0000 0.20252  0.87975  0.64110  Biso   1.000  O
  O21      1.0000 0.19571  0.67352  0.16272  Biso   1.000  O
  O22      1.0000 0.19623  0.88093  0.16807  Biso   1.000  O
  O23      1.0000 0.68509  0.88032  0.16090  Biso   1.000  O
  O24      1.0000 0.80305  0.27519  0.54948  Biso   1.000  O
  O25      1.0000 0.59481  0.27204  0.76554  Biso   1.000  O
  O26      1.0000 0.80104  0.27884  0.24392  Biso   1.000  O
  O27      1.0000 0.59363  0.27833  0.23857  Biso   1.000  O
  O28      1.0000 0.59424  0.78947  0.24574  Biso   1.000  O
  O29      1.0000 0.28918  0.27650  0.54877  Biso   1.000  O
  O30      1.0000 0.28644  0.27376  0.76948  Biso   1.000  O
  O31      1.0000 0.19806  0.18538  0.85787  Biso   1.000  O
  O32      1.0000 0.20080  0.18812  0.63716  Biso   1.000  O
  O33      1.0000 0.35655  0.62547  0.58857  Biso   1.000  O
  O34      1.0000 0.29715  0.68304  0.64958  Biso   1.000  O
  O35      1.0000 0.27080  0.76359  0.61241  Biso   1.000  O
  O36      1.0000 0.26897  0.64496  0.73968  Biso   1.000  O
  O37      1.0000 0.35697  0.62427  0.30917  Biso   1.000  O
  O38      1.0000 0.30051  0.68054  0.25170  Biso   1.000  O
  O39      1.0000 0.27244  0.76240  0.22624  Biso   1.000  O
  O40      1.0000 0.27203  0.64357  0.22281  Biso   1.000  O
  O41      1.0000 0.77559  0.64428  0.22604  Biso   1.000  O
  O42      1.0000 0.84909  0.11801  0.81807  Biso   1.000  O
  O43      1.0000 0.79152  0.17740  0.75706  Biso   1.000  O
  O44      1.0000 0.71097  0.20376  0.79423  Biso   1.000  O
  O45      1.0000 0.82960  0.20559  0.66696  Biso   1.000  O
  O46      1.0000 0.85029  0.11759  0.09746  Biso   1.000  O
  O47      1.0000 0.79402  0.17405  0.15494  Biso   1.000  O
  O48      1.0000 0.71216  0.20213  0.18039  Biso   1.000  O
  O49      1.0000 0.83099  0.20253  0.18383  Biso   1.000  O
  O50      1.0000 0.83028  0.69897  0.18060  Biso   1.000  O
  O51      1.0000 0.13069  0.83641  0.81807  Biso   1.000  O
  O52      1.0000 0.19009  0.77884  0.75706  Biso   1.000  O
  O53      1.0000 0.21644  0.69829  0.79423  Biso   1.000  O
  O54      1.0000 0.21828  0.81692  0.66696  Biso   1.000  O
  O55      1.0000 0.13027  0.83760  0.09746  Biso   1.000  O
  O56      1.0000 0.18673  0.78134  0.15494  Biso   1.000  O
  O57      1.0000 0.21480  0.69948  0.18039  Biso   1.000  O
  O58      1.0000 0.21522  0.81831  0.18383  Biso   1.000  O
  O59      1.0000 0.71165  0.81760  0.18060  Biso   1.000  O
  O60      1.0000 0.63815  0.34387  0.58857  Biso   1.000  O
  O61      1.0000 0.69572  0.28447  0.64958  Biso   1.000  O
  O62      1.0000 0.77628  0.25811  0.61241  Biso   1.000  O
  O63      1.0000 0.65764  0.25629  0.73968  Biso   1.000  O
  O64      1.0000 0.63696  0.34429  0.30917  Biso   1.000  O
  O65      1.0000 0.69322  0.28783  0.25170  Biso   1.000  O
  O66      1.0000 0.77509  0.25975  0.22624  Biso   1.000  O
  O67      1.0000 0.65625  0.25935  0.22281  Biso   1.000  O
  O68      1.0000 0.65697  0.76290  0.22604  Biso   1.000  O
  O69      1.0000 0.35483  0.34215  0.59524  Biso   1.000  O
  O70      1.0000 0.29817  0.28548  0.64877  Biso   1.000  O
  O71      1.0000 0.27130  0.25862  0.61140  Biso   1.000  O
  O72      1.0000 0.26887  0.25619  0.74170  Biso   1.000  O
  O73      1.0000 0.63402  0.62135  0.31443  Biso   1.000  O
  O74      1.0000 0.69483  0.68215  0.25180  Biso   1.000  O
  O75      1.0000 0.13241  0.11973  0.81140  Biso   1.000  O
  O76      1.0000 0.18908  0.17639  0.75787  Biso   1.000  O
  O77      1.0000 0.21594  0.20326  0.79524  Biso   1.000  O
  O78      1.0000 0.21837  0.20569  0.66494  Biso   1.000  O
  O79      1.0000 0.85322  0.84053  0.09221  Biso   1.000  O
  O80      1.0000 0.79241  0.77972  0.15484  Biso   1.000  O
  O81      1.0000 0.37685  0.53891  0.63251  Biso   1.000  O
  O82      1.0000 0.37928  0.66638  0.50503  Biso   1.000  O
  O83      1.0000 0.37656  0.53781  0.33473  Biso   1.000  O
  O84      1.0000 0.37878  0.66488  0.33190  Biso   1.000  O
  O85      1.0000 0.67685  0.53751  0.33423  Biso   1.000  O
  O86      1.0000 0.93565  0.09771  0.77413  Biso   1.000  O
  O87      1.0000 0.80818  0.09528  0.90160  Biso   1.000  O
  O88      1.0000 0.93675  0.09800  0.07191  Biso   1.000  O
  O89      1.0000 0.80968  0.09577  0.07474  Biso   1.000  O
  O90      1.0000 0.93705  0.79771  0.07241  Biso   1.000  O
  O91      1.0000 0.11039  0.92297  0.77413  Biso   1.000  O
  O92      1.0000 0.10796  0.79549  0.90160  Biso   1.000  O
  O93      1.0000 0.11068  0.92406  0.07191  Biso   1.000  O
  O94      1.0000 0.10846  0.79700  0.07474  Biso   1.000  O
  O95      1.0000 0.81039  0.92437  0.07241  Biso   1.000  O
  O96      1.0000 0.55159  0.36417  0.63251  Biso   1.000  O
  O97      1.0000 0.67906  0.36660  0.50503  Biso   1.000  O
  O98      1.0000 0.55049  0.36388  0.33473  Biso   1.000  O
  O99      1.0000 0.67756  0.36610  0.33190  Biso   1.000  O
  O100     1.0000 0.55019  0.66417  0.33423  Biso   1.000  O
  O101     1.0000 0.49604  0.48336  0.45099  Biso   1.000  O
  O102     1.0000 0.37826  0.36558  0.63150  Biso   1.000  O
  O103     1.0000 0.37665  0.36397  0.50978  Biso   1.000  O
  O104     1.0000 0.99120  0.97851  0.95564  Biso   1.000  O
  O105     1.0000 0.10898  0.09629  0.77514  Biso   1.000  O
