data_image0
_cell_length_a       18.0703
_cell_length_b       18.0703
_cell_length_c       18.0703
_cell_angle_alpha    60
_cell_angle_beta     60
_cell_angle_gamma    60

_symmetry_space_group_name_H-M    "P 1"
_symmetry_int_tables_number       1

loop_
  _symmetry_equiv_pos_as_xyz
  'x, y, z'

loop_
  _atom_site_label
  _atom_site_occupancy
  _atom_site_fract_x
  _atom_site_fract_y
  _atom_site_fract_z
  _atom_site_thermal_displace_type
  _atom_site_B_iso_or_equiv
  _atom_site_type_symbol
  Zn1      1.0000 0.29350  0.29350  0.29350  Biso   1.000  Zn
  Zn2      1.0000 0.29350  0.29350  0.11950  Biso   1.000  Zn
  Zn3      1.0000 0.29350  0.11950  0.29350  Biso   1.000  Zn
  Zn4      1.0000 0.11950  0.29350  0.29350  Biso   1.000  Zn
  Zn5      1.0000 0.70650  0.70650  0.70650  Biso   1.000  Zn
  Zn6      1.0000 0.70650  0.70650  0.88050  Biso   1.000  Zn
  Zn7      1.0000 0.88050  0.70650  0.70650  Biso   1.000  Zn
  Zn8      1.0000 0.70650  0.88050  0.70650  Biso   1.000  Zn
  C1       1.0000 0.47340  0.47340  0.96080  Biso   1.000  C
  C2       1.0000 0.47340  0.47340  0.09240  Biso   1.000  C
  C3       1.0000 0.96080  0.09240  0.47340  Biso   1.000  C
  C4       1.0000 0.09240  0.96080  0.47340  Biso   1.000  C
  C5       1.0000 0.47340  0.96080  0.09240  Biso   1.000  C
  C6       1.0000 0.47340  0.09240  0.96080  Biso   1.000  C
  C7       1.0000 0.96080  0.47340  0.47340  Biso   1.000  C
  C8       1.0000 0.09240  0.47340  0.47340  Biso   1.000  C
  C9       1.0000 0.47340  0.09240  0.47340  Biso   1.000  C
  C10      1.0000 0.47340  0.96080  0.47340  Biso   1.000  C
  C11      1.0000 0.96080  0.47340  0.09240  Biso   1.000  C
  C12      1.0000 0.09240  0.47340  0.96080  Biso   1.000  C
  C13      1.0000 0.52660  0.52660  0.03920  Biso   1.000  C
  C14      1.0000 0.52660  0.52660  0.90760  Biso   1.000  C
  C15      1.0000 0.90760  0.03920  0.52660  Biso   1.000  C
  C16      1.0000 0.03920  0.90760  0.52660  Biso   1.000  C
  C17      1.0000 0.03920  0.52660  0.90760  Biso   1.000  C
  C18      1.0000 0.90760  0.52660  0.03920  Biso   1.000  C
  C19      1.0000 0.52660  0.03920  0.52660  Biso   1.000  C
  C20      1.0000 0.52660  0.90760  0.52660  Biso   1.000  C
  C21      1.0000 0.90760  0.52660  0.52660  Biso   1.000  C
  C22      1.0000 0.03920  0.52660  0.52660  Biso   1.000  C
  C23      1.0000 0.52660  0.03920  0.90760  Biso   1.000  C
  C24      1.0000 0.52660  0.90760  0.03920  Biso   1.000  C
  C25      1.0000 0.38820  0.38820  0.11180  Biso   1.000  C
  C26      1.0000 0.44590  0.44590  0.05410  Biso   1.000  C
  C27      1.0000 0.11180  0.11180  0.38820  Biso   1.000  C
  C28      1.0000 0.05410  0.05410  0.44590  Biso   1.000  C
  C29      1.0000 0.38820  0.11180  0.11180  Biso   1.000  C
  C30      1.0000 0.44590  0.05410  0.05410  Biso   1.000  C
  C31      1.0000 0.11180  0.38820  0.38820  Biso   1.000  C
  C32      1.0000 0.05410  0.44590  0.44590  Biso   1.000  C
  C33      1.0000 0.38820  0.11180  0.38820  Biso   1.000  C
  C34      1.0000 0.44590  0.05410  0.44590  Biso   1.000  C
  C35      1.0000 0.11180  0.38820  0.11180  Biso   1.000  C
  C36      1.0000 0.05410  0.44590  0.05410  Biso   1.000  C
  C37      1.0000 0.61180  0.61180  0.88820  Biso   1.000  C
  C38      1.0000 0.55410  0.55410  0.94590  Biso   1.000  C
  C39      1.0000 0.88820  0.88820  0.61180  Biso   1.000  C
  C40      1.0000 0.94590  0.94590  0.55410  Biso   1.000  C
  C41      1.0000 0.88820  0.61180  0.88820  Biso   1.000  C
  C42      1.0000 0.94590  0.55410  0.94590  Biso   1.000  C
  C43      1.0000 0.61180  0.88820  0.61180  Biso   1.000  C
  C44      1.0000 0.55410  0.94590  0.55410  Biso   1.000  C
  C45      1.0000 0.88820  0.61180  0.61180  Biso   1.000  C
  C46      1.0000 0.94590  0.55410  0.55410  Biso   1.000  C
  C47      1.0000 0.61180  0.88820  0.88820  Biso   1.000  C
  C48      1.0000 0.55410  0.94590  0.94590  Biso   1.000  C
  O1       1.0000 0.25000  0.25000  0.25000  Biso   1.000  O
  O2       1.0000 0.75000  0.75000  0.75000  Biso   1.000  O
  O3       1.0000 0.36569  0.36569  0.19789  Biso   1.000  O
  O4       1.0000 0.36569  0.36569  0.07073  Biso   1.000  O
  O5       1.0000 0.19789  0.07073  0.36569  Biso   1.000  O
  O6       1.0000 0.07073  0.19789  0.36569  Biso   1.000  O
  O7       1.0000 0.36569  0.19789  0.07073  Biso   1.000  O
  O8       1.0000 0.36569  0.07073  0.19789  Biso   1.000  O
  O9       1.0000 0.19789  0.36569  0.36569  Biso   1.000  O
  O10      1.0000 0.07073  0.36569  0.36569  Biso   1.000  O
  O11      1.0000 0.36569  0.07073  0.36569  Biso   1.000  O
  O12      1.0000 0.36569  0.19789  0.36569  Biso   1.000  O
  O13      1.0000 0.19789  0.36569  0.07073  Biso   1.000  O
  O14      1.0000 0.07073  0.36569  0.19789  Biso   1.000  O
  O15      1.0000 0.63431  0.63431  0.80211  Biso   1.000  O
  O16      1.0000 0.63431  0.63431  0.92927  Biso   1.000  O
  O17      1.0000 0.92927  0.80211  0.63431  Biso   1.000  O
  O18      1.0000 0.80211  0.92927  0.63431  Biso   1.000  O
  O19      1.0000 0.80211  0.63431  0.92927  Biso   1.000  O
  O20      1.0000 0.92927  0.63431  0.80211  Biso   1.000  O
  O21      1.0000 0.63431  0.80211  0.63431  Biso   1.000  O
  O22      1.0000 0.63431  0.92927  0.63431  Biso   1.000  O
  O23      1.0000 0.92927  0.63431  0.63431  Biso   1.000  O
  O24      1.0000 0.80211  0.63431  0.63431  Biso   1.000  O
  O25      1.0000 0.63431  0.80211  0.92927  Biso   1.000  O
  O26      1.0000 0.63431  0.92927  0.80211  Biso   1.000  O
  H1       1.0000 0.45110  0.45110  0.92847  Biso   1.000  H
  H2       1.0000 0.45110  0.45110  0.16934  Biso   1.000  H
  H3       1.0000 0.92847  0.16934  0.45110  Biso   1.000  H
  H4       1.0000 0.16934  0.92847  0.45110  Biso   1.000  H
  H5       1.0000 0.45110  0.92847  0.16934  Biso   1.000  H
  H6       1.0000 0.45110  0.16934  0.92847  Biso   1.000  H
  H7       1.0000 0.92847  0.45110  0.45110  Biso   1.000  H
  H8       1.0000 0.16934  0.45110  0.45110  Biso   1.000  H
  H9       1.0000 0.45110  0.16934  0.45110  Biso   1.000  H
  H10      1.0000 0.45110  0.92847  0.45110  Biso   1.000  H
  H11      1.0000 0.92847  0.45110  0.16934  Biso   1.000  H
  H12      1.0000 0.16934  0.45110  0.92847  Biso   1.000  H
  H13      1.0000 0.54890  0.54890  0.07153  Biso   1.000  H
  H14      1.0000 0.54890  0.54890  0.83066  Biso   1.000  H
  H15      1.0000 0.83066  0.07153  0.54890  Biso   1.000  H
  H16      1.0000 0.07153  0.83066  0.54890  Biso   1.000  H
  H17      1.0000 0.07153  0.54890  0.83066  Biso   1.000  H
  H18      1.0000 0.83066  0.54890  0.07153  Biso   1.000  H
  H19      1.0000 0.54890  0.07153  0.54890  Biso   1.000  H
  H20      1.0000 0.54890  0.83066  0.54890  Biso   1.000  H
  H21      1.0000 0.83066  0.54890  0.54890  Biso   1.000  H
  H22      1.0000 0.07153  0.54890  0.54890  Biso   1.000  H
  H23      1.0000 0.54890  0.07153  0.83066  Biso   1.000  H
  H24      1.0000 0.54890  0.83066  0.07153  Biso   1.000  H
  Zn9      1.0000 0.48264  0.34918  0.67777  Biso   1.000  Zn
  Zn10     1.0000 0.65848  0.34918  0.50192  Biso   1.000  Zn
  Zn11     1.0000 0.48264  0.34918  0.50192  Biso   1.000  Zn
  Zn12     1.0000 0.48264  0.52503  0.50192  Biso   1.000  Zn
  Zn13     1.0000 0.08510  0.93226  0.90915  Biso   1.000  Zn
  Zn14     1.0000 0.90925  0.93226  0.08499  Biso   1.000  Zn
  Zn15     1.0000 0.08510  0.75641  0.08499  Biso   1.000  Zn
  Zn16     1.0000 0.08510  0.93226  0.08499  Biso   1.000  Zn
  H25      1.0000 0.63504  0.18535  0.85303  Biso   1.000  H
  H26      1.0000 0.84344  0.18535  0.64463  Biso   1.000  H
  H27      1.0000 0.32850  0.49189  0.33808  Biso   1.000  H
  H28      1.0000 0.32850  0.70029  0.33808  Biso   1.000  H
  H29      1.0000 0.32850  0.70029  0.64463  Biso   1.000  H
  H30      1.0000 0.32850  0.49189  0.85303  Biso   1.000  H
  H31      1.0000 0.63504  0.18535  0.33808  Biso   1.000  H
  H32      1.0000 0.84344  0.18535  0.33808  Biso   1.000  H
  H33      1.0000 0.84344  0.49189  0.33808  Biso   1.000  H
  H34      1.0000 0.63504  0.70029  0.33808  Biso   1.000  H
  H35      1.0000 0.32850  0.18535  0.64463  Biso   1.000  H
  H36      1.0000 0.32850  0.18535  0.85303  Biso   1.000  H
  H37      1.0000 0.93270  0.09609  0.73389  Biso   1.000  H
  H38      1.0000 0.72430  0.09609  0.94228  Biso   1.000  H
  H39      1.0000 0.23924  0.58115  0.24883  Biso   1.000  H
  H40      1.0000 0.23924  0.78955  0.24883  Biso   1.000  H
  H41      1.0000 0.23924  0.09609  0.94228  Biso   1.000  H
  H42      1.0000 0.23924  0.09609  0.73389  Biso   1.000  H
  H43      1.0000 0.93270  0.58115  0.24883  Biso   1.000  H
  H44      1.0000 0.72430  0.78955  0.24883  Biso   1.000  H
  H45      1.0000 0.72430  0.09609  0.24883  Biso   1.000  H
  H46      1.0000 0.93270  0.09609  0.24883  Biso   1.000  H
  H47      1.0000 0.23924  0.58115  0.94228  Biso   1.000  H
  H48      1.0000 0.23924  0.78955  0.73389  Biso   1.000  H
  C49      1.0000 0.69777  0.16753  0.82594  Biso   1.000  C
  C50      1.0000 0.81635  0.16753  0.70736  Biso   1.000  C
  C51      1.0000 0.31068  0.55462  0.32026  Biso   1.000  C
  C52      1.0000 0.31068  0.67320  0.32026  Biso   1.000  C
  C53      1.0000 0.31068  0.67320  0.70736  Biso   1.000  C
  C54      1.0000 0.31068  0.55462  0.82594  Biso   1.000  C
  C55      1.0000 0.69777  0.16753  0.32026  Biso   1.000  C
  C56      1.0000 0.81635  0.16753  0.32026  Biso   1.000  C
  C57      1.0000 0.81635  0.55462  0.32026  Biso   1.000  C
  C58      1.0000 0.69777  0.67320  0.32026  Biso   1.000  C
  C59      1.0000 0.31068  0.16753  0.70736  Biso   1.000  C
  C60      1.0000 0.31068  0.16753  0.82594  Biso   1.000  C
  C61      1.0000 0.86996  0.11391  0.76098  Biso   1.000  C
  C62      1.0000 0.75139  0.11391  0.87955  Biso   1.000  C
  C63      1.0000 0.25706  0.60824  0.26665  Biso   1.000  C
  C64      1.0000 0.25706  0.72682  0.26665  Biso   1.000  C
  C65      1.0000 0.25706  0.11391  0.87955  Biso   1.000  C
  C66      1.0000 0.25706  0.11391  0.76098  Biso   1.000  C
  C67      1.0000 0.86996  0.60824  0.26665  Biso   1.000  C
  C68      1.0000 0.75139  0.72682  0.26665  Biso   1.000  C
  C69      1.0000 0.75139  0.11391  0.26665  Biso   1.000  C
  C70      1.0000 0.86996  0.11391  0.26665  Biso   1.000  C
  C71      1.0000 0.25706  0.60824  0.87955  Biso   1.000  C
  C72      1.0000 0.25706  0.72682  0.76098  Biso   1.000  C
  C73      1.0000 0.66651  0.25323  0.68579  Biso   1.000  C
  C74      1.0000 0.72470  0.19504  0.74398  Biso   1.000  C
  C75      1.0000 0.38668  0.53306  0.40597  Biso   1.000  C
  C76      1.0000 0.32850  0.59125  0.34778  Biso   1.000  C
  C77      1.0000 0.38668  0.53306  0.68579  Biso   1.000  C
  C78      1.0000 0.32850  0.59125  0.74398  Biso   1.000  C
  C79      1.0000 0.66651  0.25323  0.40597  Biso   1.000  C
  C80      1.0000 0.72470  0.19504  0.34778  Biso   1.000  C
  C81      1.0000 0.66651  0.53306  0.40597  Biso   1.000  C
  C82      1.0000 0.72470  0.59125  0.34778  Biso   1.000  C
  C83      1.0000 0.38668  0.25323  0.68579  Biso   1.000  C
  C84      1.0000 0.32850  0.19504  0.74398  Biso   1.000  C
  C85      1.0000 0.90123  0.02821  0.90112  Biso   1.000  C
  C86      1.0000 0.84304  0.08640  0.84293  Biso   1.000  C
  C87      1.0000 0.18105  0.74838  0.18095  Biso   1.000  C
  C88      1.0000 0.23924  0.69019  0.23913  Biso   1.000  C
  C89      1.0000 0.18105  0.02821  0.90112  Biso   1.000  C
  C90      1.0000 0.23924  0.08640  0.84293  Biso   1.000  C
  C91      1.0000 0.90123  0.74838  0.18095  Biso   1.000  C
  C92      1.0000 0.84304  0.69019  0.23913  Biso   1.000  C
  C93      1.0000 0.90123  0.02821  0.18095  Biso   1.000  C
  C94      1.0000 0.84304  0.08640  0.23913  Biso   1.000  C
  C95      1.0000 0.18105  0.74838  0.90112  Biso   1.000  C
  C96      1.0000 0.23924  0.69019  0.84293  Biso   1.000  C
  O27      1.0000 0.52660  0.39314  0.54588  Biso   1.000  O
  O28      1.0000 0.04114  0.88830  0.04103  Biso   1.000  O
  O29      1.0000 0.58230  0.27599  0.72449  Biso   1.000  O
  O30      1.0000 0.70520  0.27599  0.60159  Biso   1.000  O
  O31      1.0000 0.40944  0.44885  0.42873  Biso   1.000  O
  O32      1.0000 0.40944  0.57175  0.42873  Biso   1.000  O
  O33      1.0000 0.40944  0.57175  0.60159  Biso   1.000  O
  O34      1.0000 0.40944  0.44885  0.72449  Biso   1.000  O
  O35      1.0000 0.58230  0.27599  0.42873  Biso   1.000  O
  O36      1.0000 0.70520  0.27599  0.42873  Biso   1.000  O
  O37      1.0000 0.70520  0.44885  0.42873  Biso   1.000  O
  O38      1.0000 0.58230  0.57175  0.42873  Biso   1.000  O
  O39      1.0000 0.40944  0.27599  0.60159  Biso   1.000  O
  O40      1.0000 0.40944  0.27599  0.72449  Biso   1.000  O
  O41      1.0000 0.98544  0.00545  0.86243  Biso   1.000  O
  O42      1.0000 0.86254  0.00545  0.98533  Biso   1.000  O
  O43      1.0000 0.15830  0.70969  0.15819  Biso   1.000  O
  O44      1.0000 0.15830  0.83259  0.15819  Biso   1.000  O
  O45      1.0000 0.15830  0.00545  0.98533  Biso   1.000  O
  O46      1.0000 0.15830  0.00545  0.86243  Biso   1.000  O
  O47      1.0000 0.98544  0.70969  0.15819  Biso   1.000  O
  O48      1.0000 0.86254  0.83259  0.15819  Biso   1.000  O
  O49      1.0000 0.86254  0.00545  0.15819  Biso   1.000  O
  O50      1.0000 0.98544  0.00545  0.15819  Biso   1.000  O
  O51      1.0000 0.15830  0.70969  0.98533  Biso   1.000  O
