data_image0
_cell_length_a       18.0703
_cell_length_b       18.0703
_cell_length_c       18.0703
_cell_angle_alpha    60
_cell_angle_beta     60
_cell_angle_gamma    60

_symmetry_space_group_name_H-M    "P 1"
_symmetry_int_tables_number       1

loop_
  _symmetry_equiv_pos_as_xyz
  'x, y, z'

loop_
  _atom_site_label
  _atom_site_occupancy
  _atom_site_fract_x
  _atom_site_fract_y
  _atom_site_fract_z
  _atom_site_thermal_displace_type
  _atom_site_B_iso_or_equiv
  _atom_site_type_symbol
  C1       1.0000 0.29350  0.29350  0.29350  Biso   1.000  C
  C2       1.0000 0.29350  0.29350  0.11950  Biso   1.000  C
  C3       1.0000 0.29350  0.11950  0.29350  Biso   1.000  C
  C4       1.0000 0.11950  0.29350  0.29350  Biso   1.000  C
  C5       1.0000 0.70650  0.70650  0.70650  Biso   1.000  C
  C6       1.0000 0.70650  0.70650  0.88050  Biso   1.000  C
  C7       1.0000 0.88050  0.70650  0.70650  Biso   1.000  C
  C8       1.0000 0.70650  0.88050  0.70650  Biso   1.000  C
  C9       1.0000 0.47340  0.47340  0.96080  Biso   1.000  C
  C10      1.0000 0.47340  0.47340  0.09240  Biso   1.000  C
  C11      1.0000 0.96080  0.09240  0.47340  Biso   1.000  C
  C12      1.0000 0.09240  0.96080  0.47340  Biso   1.000  C
  C13      1.0000 0.47340  0.96080  0.09240  Biso   1.000  C
  C14      1.0000 0.47340  0.09240  0.96080  Biso   1.000  C
  C15      1.0000 0.96080  0.47340  0.47340  Biso   1.000  C
  C16      1.0000 0.09240  0.47340  0.47340  Biso   1.000  C
  C17      1.0000 0.47340  0.09240  0.47340  Biso   1.000  C
  C18      1.0000 0.47340  0.96080  0.47340  Biso   1.000  C
  C19      1.0000 0.96080  0.47340  0.09240  Biso   1.000  C
  C20      1.0000 0.09240  0.47340  0.96080  Biso   1.000  C
  C21      1.0000 0.52660  0.52660  0.03920  Biso   1.000  C
  C22      1.0000 0.52660  0.52660  0.90760  Biso   1.000  C
  C23      1.0000 0.90760  0.03920  0.52660  Biso   1.000  C
  C24      1.0000 0.03920  0.90760  0.52660  Biso   1.000  C
  C25      1.0000 0.03920  0.52660  0.90760  Biso   1.000  C
  C26      1.0000 0.90760  0.52660  0.03920  Biso   1.000  C
  C27      1.0000 0.52660  0.03920  0.52660  Biso   1.000  C
  C28      1.0000 0.52660  0.90760  0.52660  Biso   1.000  C
  C29      1.0000 0.90760  0.52660  0.52660  Biso   1.000  C
  C30      1.0000 0.03920  0.52660  0.52660  Biso   1.000  C
  C31      1.0000 0.52660  0.03920  0.90760  Biso   1.000  C
  C32      1.0000 0.52660  0.90760  0.03920  Biso   1.000  C
  C33      1.0000 0.38820  0.38820  0.11180  Biso   1.000  C
  C34      1.0000 0.44590  0.44590  0.05410  Biso   1.000  C
  C35      1.0000 0.11180  0.11180  0.38820  Biso   1.000  C
  C36      1.0000 0.05410  0.05410  0.44590  Biso   1.000  C
  C37      1.0000 0.38820  0.11180  0.11180  Biso   1.000  C
  C38      1.0000 0.44590  0.05410  0.05410  Biso   1.000  C
  C39      1.0000 0.11180  0.38820  0.38820  Biso   1.000  C
  C40      1.0000 0.05410  0.44590  0.44590  Biso   1.000  C
  C41      1.0000 0.38820  0.11180  0.38820  Biso   1.000  C
  C42      1.0000 0.44590  0.05410  0.44590  Biso   1.000  C
  C43      1.0000 0.11180  0.38820  0.11180  Biso   1.000  C
  C44      1.0000 0.05410  0.44590  0.05410  Biso   1.000  C
  C45      1.0000 0.61180  0.61180  0.88820  Biso   1.000  C
  C46      1.0000 0.55410  0.55410  0.94590  Biso   1.000  C
  C47      1.0000 0.88820  0.88820  0.61180  Biso   1.000  C
  C48      1.0000 0.94590  0.94590  0.55410  Biso   1.000  C
  C49      1.0000 0.88820  0.61180  0.88820  Biso   1.000  C
  C50      1.0000 0.94590  0.55410  0.94590  Biso   1.000  C
  C51      1.0000 0.61180  0.88820  0.61180  Biso   1.000  C
  C52      1.0000 0.55410  0.94590  0.55410  Biso   1.000  C
  C53      1.0000 0.88820  0.61180  0.61180  Biso   1.000  C
  C54      1.0000 0.94590  0.55410  0.55410  Biso   1.000  C
  C55      1.0000 0.61180  0.88820  0.88820  Biso   1.000  C
  C56      1.0000 0.55410  0.94590  0.94590  Biso   1.000  C
  C57      1.0000 0.25000  0.25000  0.25000  Biso   1.000  C
  C58      1.0000 0.75000  0.75000  0.75000  Biso   1.000  C
  C59      1.0000 0.36569  0.36569  0.19789  Biso   1.000  C
  C60      1.0000 0.36569  0.36569  0.07073  Biso   1.000  C
  C61      1.0000 0.19789  0.07073  0.36569  Biso   1.000  C
  C62      1.0000 0.07073  0.19789  0.36569  Biso   1.000  C
  C63      1.0000 0.36569  0.19789  0.07073  Biso   1.000  C
  C64      1.0000 0.36569  0.07073  0.19789  Biso   1.000  C
  C65      1.0000 0.19789  0.36569  0.36569  Biso   1.000  C
  C66      1.0000 0.07073  0.36569  0.36569  Biso   1.000  C
  C67      1.0000 0.36569  0.07073  0.36569  Biso   1.000  C
  C68      1.0000 0.36569  0.19789  0.36569  Biso   1.000  C
  C69      1.0000 0.19789  0.36569  0.07073  Biso   1.000  C
  C70      1.0000 0.07073  0.36569  0.19789  Biso   1.000  C
  C71      1.0000 0.63431  0.63431  0.80211  Biso   1.000  C
  C72      1.0000 0.63431  0.63431  0.92927  Biso   1.000  C
  C73      1.0000 0.92927  0.80211  0.63431  Biso   1.000  C
  C74      1.0000 0.80211  0.92927  0.63431  Biso   1.000  C
  C75      1.0000 0.80211  0.63431  0.92927  Biso   1.000  C
  C76      1.0000 0.92927  0.63431  0.80211  Biso   1.000  C
  C77      1.0000 0.63431  0.80211  0.63431  Biso   1.000  C
  C78      1.0000 0.63431  0.92927  0.63431  Biso   1.000  C
  C79      1.0000 0.92927  0.63431  0.63431  Biso   1.000  C
  C80      1.0000 0.80211  0.63431  0.63431  Biso   1.000  C
  C81      1.0000 0.63431  0.80211  0.92927  Biso   1.000  C
  C82      1.0000 0.63431  0.92927  0.80211  Biso   1.000  C
  C83      1.0000 0.45110  0.45110  0.92847  Biso   1.000  C
  C84      1.0000 0.45110  0.45110  0.16934  Biso   1.000  C
  C85      1.0000 0.92847  0.16934  0.45110  Biso   1.000  C
  C86      1.0000 0.16934  0.92847  0.45110  Biso   1.000  C
  C87      1.0000 0.45110  0.92847  0.16934  Biso   1.000  C
  C88      1.0000 0.45110  0.16934  0.92847  Biso   1.000  C
  C89      1.0000 0.92847  0.45110  0.45110  Biso   1.000  C
  C90      1.0000 0.16934  0.45110  0.45110  Biso   1.000  C
  C91      1.0000 0.45110  0.16934  0.45110  Biso   1.000  C
  C92      1.0000 0.45110  0.92847  0.45110  Biso   1.000  C
  C93      1.0000 0.92847  0.45110  0.16934  Biso   1.000  C
  C94      1.0000 0.16934  0.45110  0.92847  Biso   1.000  C
  C95      1.0000 0.54890  0.54890  0.07153  Biso   1.000  C
  C96      1.0000 0.54890  0.54890  0.83066  Biso   1.000  C
  C97      1.0000 0.83066  0.07153  0.54890  Biso   1.000  C
  C98      1.0000 0.07153  0.83066  0.54890  Biso   1.000  C
  C99      1.0000 0.07153  0.54890  0.83066  Biso   1.000  C
  C100     1.0000 0.83066  0.54890  0.07153  Biso   1.000  C
  C101     1.0000 0.54890  0.07153  0.54890  Biso   1.000  C
  C102     1.0000 0.54890  0.83066  0.54890  Biso   1.000  C
  C103     1.0000 0.83066  0.54890  0.54890  Biso   1.000  C
  C104     1.0000 0.07153  0.54890  0.54890  Biso   1.000  C
  C105     1.0000 0.54890  0.07153  0.83066  Biso   1.000  C
  C106     1.0000 0.54890  0.83066  0.07153  Biso   1.000  C
  O1       1.0000 0.48651  0.54476  0.47444  Biso   1.000  O
  O2       1.0000 0.48651  0.36998  0.47444  Biso   1.000  O
  O3       1.0000 0.66129  0.36998  0.47444  Biso   1.000  O
  O4       1.0000 0.48651  0.36998  0.64922  Biso   1.000  O
  O5       1.0000 0.07759  0.95379  0.05824  Biso   1.000  O
  O6       1.0000 0.07759  0.78607  0.05824  Biso   1.000  O
  O7       1.0000 0.07759  0.95379  0.89053  Biso   1.000  O
  O8       1.0000 0.90987  0.95379  0.05824  Biso   1.000  O
  O9       1.0000 0.23387  0.81980  0.22179  Biso   1.000  O
  O10      1.0000 0.23387  0.60022  0.22179  Biso   1.000  O
  O11      1.0000 0.93634  0.11734  0.70468  Biso   1.000  O
  O12      1.0000 0.71675  0.11734  0.92426  Biso   1.000  O
  O13      1.0000 0.93634  0.11734  0.22179  Biso   1.000  O
  O14      1.0000 0.71675  0.11734  0.22179  Biso   1.000  O
  O15      1.0000 0.23387  0.60022  0.92426  Biso   1.000  O
  O16      1.0000 0.23387  0.81980  0.70468  Biso   1.000  O
  O17      1.0000 0.23387  0.11734  0.92426  Biso   1.000  O
  O18      1.0000 0.23387  0.11734  0.70468  Biso   1.000  O
  O19      1.0000 0.71675  0.81980  0.22179  Biso   1.000  O
  O20      1.0000 0.93634  0.60022  0.22179  Biso   1.000  O
  O21      1.0000 0.30005  0.70326  0.28797  Biso   1.000  O
  O22      1.0000 0.25170  0.75725  0.23962  Biso   1.000  O
  O23      1.0000 0.30005  0.58441  0.28797  Biso   1.000  O
  O24      1.0000 0.25170  0.62711  0.23962  Biso   1.000  O
  O25      1.0000 0.81980  0.18351  0.68886  Biso   1.000  O
  O26      1.0000 0.87379  0.13516  0.73157  Biso   1.000  O
  O27      1.0000 0.70094  0.18351  0.80772  Biso   1.000  O
  O28      1.0000 0.74365  0.13516  0.86171  Biso   1.000  O
  O29      1.0000 0.81980  0.18351  0.28797  Biso   1.000  O
  O30      1.0000 0.87379  0.13516  0.23962  Biso   1.000  O
  O31      1.0000 0.70094  0.18351  0.28797  Biso   1.000  O
  O32      1.0000 0.74365  0.13516  0.23962  Biso   1.000  O
  O33      1.0000 0.30005  0.58441  0.80772  Biso   1.000  O
  O34      1.0000 0.25170  0.62711  0.86171  Biso   1.000  O
  O35      1.0000 0.30005  0.70326  0.68886  Biso   1.000  O
  O36      1.0000 0.25170  0.75725  0.73157  Biso   1.000  O
  O37      1.0000 0.30005  0.18351  0.80772  Biso   1.000  O
  O38      1.0000 0.25170  0.13516  0.86171  Biso   1.000  O
  O39      1.0000 0.30005  0.18351  0.68886  Biso   1.000  O
  O40      1.0000 0.25170  0.13516  0.73157  Biso   1.000  O
  O41      1.0000 0.70094  0.70326  0.28797  Biso   1.000  O
  O42      1.0000 0.74365  0.75725  0.23962  Biso   1.000  O
  O43      1.0000 0.81980  0.58441  0.28797  Biso   1.000  O
  O44      1.0000 0.87379  0.62711  0.23962  Biso   1.000  O
  O45      1.0000 0.33369  0.61019  0.32161  Biso   1.000  O
  O46      1.0000 0.22873  0.71515  0.21666  Biso   1.000  O
  O47      1.0000 0.16689  0.77699  0.15481  Biso   1.000  O
  O48      1.0000 0.39090  0.55298  0.37883  Biso   1.000  O
  O49      1.0000 0.72672  0.21716  0.71465  Biso   1.000  O
  O50      1.0000 0.83168  0.11220  0.81961  Biso   1.000  O
  O51      1.0000 0.89353  0.05035  0.88145  Biso   1.000  O
  O52      1.0000 0.66951  0.27437  0.65744  Biso   1.000  O
  O53      1.0000 0.72672  0.21716  0.32161  Biso   1.000  O
  O54      1.0000 0.83168  0.11220  0.21666  Biso   1.000  O
  O55      1.0000 0.89353  0.05035  0.15481  Biso   1.000  O
  O56      1.0000 0.66951  0.27437  0.37883  Biso   1.000  O
  O57      1.0000 0.33369  0.61019  0.71465  Biso   1.000  O
  O58      1.0000 0.22873  0.71515  0.81961  Biso   1.000  O
  O59      1.0000 0.16689  0.77699  0.88145  Biso   1.000  O
  O60      1.0000 0.39090  0.55298  0.65744  Biso   1.000  O
  O61      1.0000 0.33369  0.21716  0.71465  Biso   1.000  O
  O62      1.0000 0.22873  0.11220  0.81961  Biso   1.000  O
  O63      1.0000 0.16689  0.05035  0.88145  Biso   1.000  O
  O64      1.0000 0.39090  0.27437  0.65744  Biso   1.000  O
  O65      1.0000 0.72672  0.61019  0.32161  Biso   1.000  O
  O66      1.0000 0.83168  0.71515  0.21666  Biso   1.000  O
  O67      1.0000 0.89353  0.77699  0.15481  Biso   1.000  O
  O68      1.0000 0.66951  0.55298  0.37883  Biso   1.000  O
  O69      1.0000 0.14251  0.86523  0.13044  Biso   1.000  O
  O70      1.0000 0.41246  0.59025  0.40038  Biso   1.000  O
  O71      1.0000 0.14251  0.73751  0.13044  Biso   1.000  O
  O72      1.0000 0.41246  0.47260  0.40038  Biso   1.000  O
  O73      1.0000 0.98176  0.02598  0.84197  Biso   1.000  O
  O74      1.0000 0.70678  0.29592  0.57706  Biso   1.000  O
  O75      1.0000 0.85404  0.02598  0.96969  Biso   1.000  O
  O76      1.0000 0.58913  0.29592  0.69471  Biso   1.000  O
  O77      1.0000 0.98176  0.02598  0.13044  Biso   1.000  O
  O78      1.0000 0.70678  0.29592  0.40038  Biso   1.000  O
  O79      1.0000 0.85404  0.02598  0.13044  Biso   1.000  O
  O80      1.0000 0.58913  0.29592  0.40038  Biso   1.000  O
  O81      1.0000 0.14251  0.73751  0.96969  Biso   1.000  O
  O82      1.0000 0.41246  0.47260  0.69471  Biso   1.000  O
  O83      1.0000 0.14251  0.86523  0.84197  Biso   1.000  O
  O84      1.0000 0.41246  0.59025  0.57706  Biso   1.000  O
  O85      1.0000 0.14251  0.02598  0.96969  Biso   1.000  O
  O86      1.0000 0.41246  0.29592  0.69471  Biso   1.000  O
  O87      1.0000 0.14251  0.02598  0.84197  Biso   1.000  O
  O88      1.0000 0.41246  0.29592  0.57706  Biso   1.000  O
  O89      1.0000 0.85404  0.86523  0.13044  Biso   1.000  O
  O90      1.0000 0.58913  0.59025  0.40038  Biso   1.000  O
  O91      1.0000 0.98176  0.73751  0.13044  Biso   1.000  O
  O92      1.0000 0.70678  0.47260  0.40038  Biso   1.000  O
  O93      1.0000 0.01931  0.91731  0.02177  Biso   1.000  O
