data_image0
_cell_length_a       18.0703
_cell_length_b       18.0703
_cell_length_c       18.0703
_cell_angle_alpha    60
_cell_angle_beta     60
_cell_angle_gamma    60

_symmetry_space_group_name_H-M    "P 1"
_symmetry_int_tables_number       1

loop_
  _symmetry_equiv_pos_as_xyz
  'x, y, z'

loop_
  _atom_site_label
  _atom_site_occupancy
  _atom_site_fract_x
  _atom_site_fract_y
  _atom_site_fract_z
  _atom_site_thermal_displace_type
  _atom_site_B_iso_or_equiv
  _atom_site_type_symbol
  C1       1.0000 0.29350  0.29350  0.29350  Biso   1.000  C
  C2       1.0000 0.29350  0.29350  0.11950  Biso   1.000  C
  C3       1.0000 0.29350  0.11950  0.29350  Biso   1.000  C
  C4       1.0000 0.11950  0.29350  0.29350  Biso   1.000  C
  C5       1.0000 0.70650  0.70650  0.70650  Biso   1.000  C
  C6       1.0000 0.70650  0.70650  0.88050  Biso   1.000  C
  C7       1.0000 0.88050  0.70650  0.70650  Biso   1.000  C
  C8       1.0000 0.70650  0.88050  0.70650  Biso   1.000  C
  C9       1.0000 0.47340  0.47340  0.96080  Biso   1.000  C
  C10      1.0000 0.47340  0.47340  0.09240  Biso   1.000  C
  C11      1.0000 0.96080  0.09240  0.47340  Biso   1.000  C
  C12      1.0000 0.09240  0.96080  0.47340  Biso   1.000  C
  C13      1.0000 0.47340  0.96080  0.09240  Biso   1.000  C
  C14      1.0000 0.47340  0.09240  0.96080  Biso   1.000  C
  C15      1.0000 0.96080  0.47340  0.47340  Biso   1.000  C
  C16      1.0000 0.09240  0.47340  0.47340  Biso   1.000  C
  C17      1.0000 0.47340  0.09240  0.47340  Biso   1.000  C
  C18      1.0000 0.47340  0.96080  0.47340  Biso   1.000  C
  C19      1.0000 0.96080  0.47340  0.09240  Biso   1.000  C
  C20      1.0000 0.09240  0.47340  0.96080  Biso   1.000  C
  C21      1.0000 0.52660  0.52660  0.03920  Biso   1.000  C
  C22      1.0000 0.52660  0.52660  0.90760  Biso   1.000  C
  C23      1.0000 0.90760  0.03920  0.52660  Biso   1.000  C
  C24      1.0000 0.03920  0.90760  0.52660  Biso   1.000  C
  C25      1.0000 0.03920  0.52660  0.90760  Biso   1.000  C
  C26      1.0000 0.90760  0.52660  0.03920  Biso   1.000  C
  C27      1.0000 0.52660  0.03920  0.52660  Biso   1.000  C
  C28      1.0000 0.52660  0.90760  0.52660  Biso   1.000  C
  C29      1.0000 0.90760  0.52660  0.52660  Biso   1.000  C
  C30      1.0000 0.03920  0.52660  0.52660  Biso   1.000  C
  C31      1.0000 0.52660  0.03920  0.90760  Biso   1.000  C
  C32      1.0000 0.52660  0.90760  0.03920  Biso   1.000  C
  C33      1.0000 0.38820  0.38820  0.11180  Biso   1.000  C
  C34      1.0000 0.44590  0.44590  0.05410  Biso   1.000  C
  C35      1.0000 0.11180  0.11180  0.38820  Biso   1.000  C
  C36      1.0000 0.05410  0.05410  0.44590  Biso   1.000  C
  C37      1.0000 0.38820  0.11180  0.11180  Biso   1.000  C
  C38      1.0000 0.44590  0.05410  0.05410  Biso   1.000  C
  C39      1.0000 0.11180  0.38820  0.38820  Biso   1.000  C
  C40      1.0000 0.05410  0.44590  0.44590  Biso   1.000  C
  C41      1.0000 0.38820  0.11180  0.38820  Biso   1.000  C
  C42      1.0000 0.44590  0.05410  0.44590  Biso   1.000  C
  C43      1.0000 0.11180  0.38820  0.11180  Biso   1.000  C
  C44      1.0000 0.05410  0.44590  0.05410  Biso   1.000  C
  C45      1.0000 0.61180  0.61180  0.88820  Biso   1.000  C
  C46      1.0000 0.55410  0.55410  0.94590  Biso   1.000  C
  C47      1.0000 0.88820  0.88820  0.61180  Biso   1.000  C
  C48      1.0000 0.94590  0.94590  0.55410  Biso   1.000  C
  C49      1.0000 0.88820  0.61180  0.88820  Biso   1.000  C
  C50      1.0000 0.94590  0.55410  0.94590  Biso   1.000  C
  C51      1.0000 0.61180  0.88820  0.61180  Biso   1.000  C
  C52      1.0000 0.55410  0.94590  0.55410  Biso   1.000  C
  C53      1.0000 0.88820  0.61180  0.61180  Biso   1.000  C
  C54      1.0000 0.94590  0.55410  0.55410  Biso   1.000  C
  C55      1.0000 0.61180  0.88820  0.88820  Biso   1.000  C
  C56      1.0000 0.55410  0.94590  0.94590  Biso   1.000  C
  C57      1.0000 0.25000  0.25000  0.25000  Biso   1.000  C
  C58      1.0000 0.75000  0.75000  0.75000  Biso   1.000  C
  C59      1.0000 0.36569  0.36569  0.19789  Biso   1.000  C
  C60      1.0000 0.36569  0.36569  0.07073  Biso   1.000  C
  C61      1.0000 0.19789  0.07073  0.36569  Biso   1.000  C
  C62      1.0000 0.07073  0.19789  0.36569  Biso   1.000  C
  C63      1.0000 0.36569  0.19789  0.07073  Biso   1.000  C
  C64      1.0000 0.36569  0.07073  0.19789  Biso   1.000  C
  C65      1.0000 0.19789  0.36569  0.36569  Biso   1.000  C
  C66      1.0000 0.07073  0.36569  0.36569  Biso   1.000  C
  C67      1.0000 0.36569  0.07073  0.36569  Biso   1.000  C
  C68      1.0000 0.36569  0.19789  0.36569  Biso   1.000  C
  C69      1.0000 0.19789  0.36569  0.07073  Biso   1.000  C
  C70      1.0000 0.07073  0.36569  0.19789  Biso   1.000  C
  C71      1.0000 0.63431  0.63431  0.80211  Biso   1.000  C
  C72      1.0000 0.63431  0.63431  0.92927  Biso   1.000  C
  C73      1.0000 0.92927  0.80211  0.63431  Biso   1.000  C
  C74      1.0000 0.80211  0.92927  0.63431  Biso   1.000  C
  C75      1.0000 0.80211  0.63431  0.92927  Biso   1.000  C
  C76      1.0000 0.92927  0.63431  0.80211  Biso   1.000  C
  C77      1.0000 0.63431  0.80211  0.63431  Biso   1.000  C
  C78      1.0000 0.63431  0.92927  0.63431  Biso   1.000  C
  C79      1.0000 0.92927  0.63431  0.63431  Biso   1.000  C
  C80      1.0000 0.80211  0.63431  0.63431  Biso   1.000  C
  C81      1.0000 0.63431  0.80211  0.92927  Biso   1.000  C
  C82      1.0000 0.63431  0.92927  0.80211  Biso   1.000  C
  C83      1.0000 0.45110  0.45110  0.92847  Biso   1.000  C
  C84      1.0000 0.45110  0.45110  0.16934  Biso   1.000  C
  C85      1.0000 0.92847  0.16934  0.45110  Biso   1.000  C
  C86      1.0000 0.16934  0.92847  0.45110  Biso   1.000  C
  C87      1.0000 0.45110  0.92847  0.16934  Biso   1.000  C
  C88      1.0000 0.45110  0.16934  0.92847  Biso   1.000  C
  C89      1.0000 0.92847  0.45110  0.45110  Biso   1.000  C
  C90      1.0000 0.16934  0.45110  0.45110  Biso   1.000  C
  C91      1.0000 0.45110  0.16934  0.45110  Biso   1.000  C
  C92      1.0000 0.45110  0.92847  0.45110  Biso   1.000  C
  C93      1.0000 0.92847  0.45110  0.16934  Biso   1.000  C
  C94      1.0000 0.16934  0.45110  0.92847  Biso   1.000  C
  C95      1.0000 0.54890  0.54890  0.07153  Biso   1.000  C
  C96      1.0000 0.54890  0.54890  0.83066  Biso   1.000  C
  C97      1.0000 0.83066  0.07153  0.54890  Biso   1.000  C
  C98      1.0000 0.07153  0.83066  0.54890  Biso   1.000  C
  C99      1.0000 0.07153  0.54890  0.83066  Biso   1.000  C
  C100     1.0000 0.83066  0.54890  0.07153  Biso   1.000  C
  C101     1.0000 0.54890  0.07153  0.54890  Biso   1.000  C
  C102     1.0000 0.54890  0.83066  0.54890  Biso   1.000  C
  C103     1.0000 0.83066  0.54890  0.54890  Biso   1.000  C
  C104     1.0000 0.07153  0.54890  0.54890  Biso   1.000  C
  C105     1.0000 0.54890  0.07153  0.83066  Biso   1.000  C
  C106     1.0000 0.54890  0.83066  0.07153  Biso   1.000  C
  O1       1.0000 0.51766  0.43955  0.40666  Biso   1.000  O
  O2       1.0000 0.51771  0.61361  0.40661  Biso   1.000  O
  O3       1.0000 0.69177  0.43955  0.40666  Biso   1.000  O
  O4       1.0000 0.51771  0.43950  0.58071  Biso   1.000  O
  O5       1.0000 0.10698  0.02434  0.99146  Biso   1.000  O
  O6       1.0000 0.10693  0.85029  0.99151  Biso   1.000  O
  O7       1.0000 0.93288  0.02434  0.99146  Biso   1.000  O
  O8       1.0000 0.10693  0.02439  0.81741  Biso   1.000  O
  O9       1.0000 0.33644  0.64134  0.22639  Biso   1.000  O
  O10      1.0000 0.71972  0.25907  0.22437  Biso   1.000  O
  O11      1.0000 0.33583  0.26007  0.60845  Biso   1.000  O
  O12      1.0000 0.33746  0.76890  0.22539  Biso   1.000  O
  O13      1.0000 0.33544  0.76992  0.60866  Biso   1.000  O
  O14      1.0000 0.71952  0.76871  0.22477  Biso   1.000  O
  O15      1.0000 0.85148  0.25928  0.60844  Biso   1.000  O
  O16      1.0000 0.85250  0.25726  0.22618  Biso   1.000  O
  O17      1.0000 0.85128  0.64135  0.22718  Biso   1.000  O
  O18      1.0000 0.72391  0.25827  0.73602  Biso   1.000  O
  O19      1.0000 0.34164  0.64154  0.73704  Biso   1.000  O
  O20      1.0000 0.34265  0.25766  0.73583  Biso   1.000  O
  O21      1.0000 0.28821  0.82256  0.17173  Biso   1.000  O
  O22      1.0000 0.90493  0.20483  0.17375  Biso   1.000  O
  O23      1.0000 0.28881  0.20382  0.78967  Biso   1.000  O
  O24      1.0000 0.28719  0.69499  0.17273  Biso   1.000  O
  O25      1.0000 0.28921  0.69397  0.78946  Biso   1.000  O
  O26      1.0000 0.90512  0.69518  0.17335  Biso   1.000  O
  O27      1.0000 0.77316  0.20461  0.78968  Biso   1.000  O
  O28      1.0000 0.77215  0.20664  0.17194  Biso   1.000  O
  O29      1.0000 0.77336  0.82255  0.17094  Biso   1.000  O
  O30      1.0000 0.90073  0.20562  0.66210  Biso   1.000  O
  O31      1.0000 0.28301  0.82235  0.66109  Biso   1.000  O
  O32      1.0000 0.28200  0.20624  0.66229  Biso   1.000  O
  O33      1.0000 0.36415  0.68012  0.25310  Biso   1.000  O
  O34      1.0000 0.42309  0.62118  0.31204  Biso   1.000  O
  O35      1.0000 0.75828  0.28599  0.64722  Biso   1.000  O
  O36      1.0000 0.69934  0.34493  0.58829  Biso   1.000  O
  O37      1.0000 0.26050  0.78378  0.14502  Biso   1.000  O
  O38      1.0000 0.20156  0.84271  0.08609  Biso   1.000  O
  O39      1.0000 0.86636  0.17791  0.75090  Biso   1.000  O
  O40      1.0000 0.92530  0.11897  0.80983  Biso   1.000  O
  O41      1.0000 0.36395  0.28579  0.64743  Biso   1.000  O
  O42      1.0000 0.42261  0.34444  0.58877  Biso   1.000  O
  O43      1.0000 0.75848  0.68032  0.25290  Biso   1.000  O
  O44      1.0000 0.69982  0.62166  0.31155  Biso   1.000  O
  O45      1.0000 0.26069  0.17811  0.75070  Biso   1.000  O
  O46      1.0000 0.20203  0.11945  0.80935  Biso   1.000  O
  O47      1.0000 0.86617  0.78358  0.14522  Biso   1.000  O
  O48      1.0000 0.92482  0.84223  0.08657  Biso   1.000  O
  O49      1.0000 0.75869  0.28558  0.25270  Biso   1.000  O
  O50      1.0000 0.70003  0.34424  0.31135  Biso   1.000  O
  O51      1.0000 0.36374  0.68052  0.64763  Biso   1.000  O
  O52      1.0000 0.42240  0.62186  0.58897  Biso   1.000  O
  O53      1.0000 0.86596  0.17831  0.14543  Biso   1.000  O
  O54      1.0000 0.92462  0.11965  0.08677  Biso   1.000  O
  O55      1.0000 0.26090  0.78337  0.75049  Biso   1.000  O
  O56      1.0000 0.20224  0.84203  0.80915  Biso   1.000  O
  O57      1.0000 0.44579  0.53657  0.33313  Biso   1.000  O
  O58      1.0000 0.44384  0.36763  0.50452  Biso   1.000  O
  O59      1.0000 0.61431  0.36726  0.33355  Biso   1.000  O
  O60      1.0000 0.44418  0.66200  0.33473  Biso   1.000  O
  O61      1.0000 0.61557  0.66150  0.33279  Biso   1.000  O
  O62      1.0000 0.44460  0.66236  0.50325  Biso   1.000  O
  O63      1.0000 0.74016  0.36602  0.50368  Biso   1.000  O
  O64      1.0000 0.73966  0.53741  0.33473  Biso   1.000  O
  O65      1.0000 0.74052  0.36644  0.33437  Biso   1.000  O
  O66      1.0000 0.61473  0.36763  0.62911  Biso   1.000  O
  O67      1.0000 0.44579  0.36568  0.62860  Biso   1.000  O
  O68      1.0000 0.44543  0.53615  0.62947  Biso   1.000  O
  O69      1.0000 0.17886  0.92733  0.06499  Biso   1.000  O
  O70      1.0000 0.18080  0.09627  0.89360  Biso   1.000  O
  O71      1.0000 0.01033  0.09663  0.06457  Biso   1.000  O
  O72      1.0000 0.18047  0.80189  0.06339  Biso   1.000  O
  O73      1.0000 0.00907  0.80240  0.06533  Biso   1.000  O
  O74      1.0000 0.18004  0.80153  0.89487  Biso   1.000  O
  O75      1.0000 0.88448  0.09787  0.89445  Biso   1.000  O
  O76      1.0000 0.88499  0.92648  0.06339  Biso   1.000  O
  O77      1.0000 0.88412  0.09745  0.06375  Biso   1.000  O
  O78      1.0000 0.00991  0.09627  0.76902  Biso   1.000  O
  O79      1.0000 0.17885  0.09822  0.76952  Biso   1.000  O
  O80      1.0000 0.17922  0.92775  0.76865  Biso   1.000  O
  O81      1.0000 0.56121  0.48305  0.45016  Biso   1.000  O
  O82      1.0000 0.06343  0.98084  0.94796  Biso   1.000  O
  O83      1.0000 0.64278  0.28212  0.24594  Biso   1.000  O
  O84      1.0000 0.88482  0.27882  0.24923  Biso   1.000  O
  O85      1.0000 0.98187  0.18178  0.15218  Biso   1.000  O
  O86      1.0000 0.73982  0.18507  0.14889  Biso   1.000  O
  O87      1.0000 0.88361  0.56442  0.25049  Biso   1.000  O
  O88      1.0000 0.98205  0.66286  0.15204  Biso   1.000  O
  O89      1.0000 0.35713  0.28338  0.53153  Biso   1.000  O
  O90      1.0000 0.25869  0.18493  0.62997  Biso   1.000  O
  O91      1.0000 0.36018  0.80123  0.24727  Biso   1.000  O
  O92      1.0000 0.35700  0.80224  0.53172  Biso   1.000  O
  O93      1.0000 0.97767  0.18374  0.62977  Biso   1.000  O
  O94      1.0000 0.25995  0.89929  0.62876  Biso   1.000  O
  O95      1.0000 0.64260  0.80103  0.24608  Biso   1.000  O
  O96      1.0000 0.74104  0.89947  0.14763  Biso   1.000  O
  O97      1.0000 0.36595  0.27896  0.76815  Biso   1.000  O
  O98      1.0000 0.26751  0.18052  0.86659  Biso   1.000  O
  O99      1.0000 0.74083  0.18189  0.86661  Biso   1.000  O
  O100     1.0000 0.36469  0.56461  0.76936  Biso   1.000  O
  O101     1.0000 0.26764  0.66165  0.86640  Biso   1.000  O
  O102     1.0000 0.64697  0.28015  0.76835  Biso   1.000  O
  O103     1.0000 0.26447  0.66266  0.15085  Biso   1.000  O
  O104     1.0000 0.35832  0.56440  0.24911  Biso   1.000  O
  O105     1.0000 0.26632  0.89949  0.14901  Biso   1.000  O
