data_image0
_cell_length_a       18.0703
_cell_length_b       18.0703
_cell_length_c       18.0703
_cell_angle_alpha    60
_cell_angle_beta     60
_cell_angle_gamma    60

_symmetry_space_group_name_H-M    "P 1"
_symmetry_int_tables_number       1

loop_
  _symmetry_equiv_pos_as_xyz
  'x, y, z'

loop_
  _atom_site_label
  _atom_site_occupancy
  _atom_site_fract_x
  _atom_site_fract_y
  _atom_site_fract_z
  _atom_site_thermal_displace_type
  _atom_site_B_iso_or_equiv
  _atom_site_type_symbol
  C1       1.0000 0.29350  0.29350  0.29350  Biso   1.000  C
  C2       1.0000 0.29350  0.29350  0.11950  Biso   1.000  C
  C3       1.0000 0.29350  0.11950  0.29350  Biso   1.000  C
  C4       1.0000 0.11950  0.29350  0.29350  Biso   1.000  C
  C5       1.0000 0.70650  0.70650  0.70650  Biso   1.000  C
  C6       1.0000 0.70650  0.70650  0.88050  Biso   1.000  C
  C7       1.0000 0.88050  0.70650  0.70650  Biso   1.000  C
  C8       1.0000 0.70650  0.88050  0.70650  Biso   1.000  C
  C9       1.0000 0.47340  0.47340  0.96080  Biso   1.000  C
  C10      1.0000 0.47340  0.47340  0.09240  Biso   1.000  C
  C11      1.0000 0.96080  0.09240  0.47340  Biso   1.000  C
  C12      1.0000 0.09240  0.96080  0.47340  Biso   1.000  C
  C13      1.0000 0.47340  0.96080  0.09240  Biso   1.000  C
  C14      1.0000 0.47340  0.09240  0.96080  Biso   1.000  C
  C15      1.0000 0.96080  0.47340  0.47340  Biso   1.000  C
  C16      1.0000 0.09240  0.47340  0.47340  Biso   1.000  C
  C17      1.0000 0.47340  0.09240  0.47340  Biso   1.000  C
  C18      1.0000 0.47340  0.96080  0.47340  Biso   1.000  C
  C19      1.0000 0.96080  0.47340  0.09240  Biso   1.000  C
  C20      1.0000 0.09240  0.47340  0.96080  Biso   1.000  C
  C21      1.0000 0.52660  0.52660  0.03920  Biso   1.000  C
  C22      1.0000 0.52660  0.52660  0.90760  Biso   1.000  C
  C23      1.0000 0.90760  0.03920  0.52660  Biso   1.000  C
  C24      1.0000 0.03920  0.90760  0.52660  Biso   1.000  C
  C25      1.0000 0.03920  0.52660  0.90760  Biso   1.000  C
  C26      1.0000 0.90760  0.52660  0.03920  Biso   1.000  C
  C27      1.0000 0.52660  0.03920  0.52660  Biso   1.000  C
  C28      1.0000 0.52660  0.90760  0.52660  Biso   1.000  C
  C29      1.0000 0.90760  0.52660  0.52660  Biso   1.000  C
  C30      1.0000 0.03920  0.52660  0.52660  Biso   1.000  C
  C31      1.0000 0.52660  0.03920  0.90760  Biso   1.000  C
  C32      1.0000 0.52660  0.90760  0.03920  Biso   1.000  C
  C33      1.0000 0.38820  0.38820  0.11180  Biso   1.000  C
  C34      1.0000 0.44590  0.44590  0.05410  Biso   1.000  C
  C35      1.0000 0.11180  0.11180  0.38820  Biso   1.000  C
  C36      1.0000 0.05410  0.05410  0.44590  Biso   1.000  C
  C37      1.0000 0.38820  0.11180  0.11180  Biso   1.000  C
  C38      1.0000 0.44590  0.05410  0.05410  Biso   1.000  C
  C39      1.0000 0.11180  0.38820  0.38820  Biso   1.000  C
  C40      1.0000 0.05410  0.44590  0.44590  Biso   1.000  C
  C41      1.0000 0.38820  0.11180  0.38820  Biso   1.000  C
  C42      1.0000 0.44590  0.05410  0.44590  Biso   1.000  C
  C43      1.0000 0.11180  0.38820  0.11180  Biso   1.000  C
  C44      1.0000 0.05410  0.44590  0.05410  Biso   1.000  C
  C45      1.0000 0.61180  0.61180  0.88820  Biso   1.000  C
  C46      1.0000 0.55410  0.55410  0.94590  Biso   1.000  C
  C47      1.0000 0.88820  0.88820  0.61180  Biso   1.000  C
  C48      1.0000 0.94590  0.94590  0.55410  Biso   1.000  C
  C49      1.0000 0.88820  0.61180  0.88820  Biso   1.000  C
  C50      1.0000 0.94590  0.55410  0.94590  Biso   1.000  C
  C51      1.0000 0.61180  0.88820  0.61180  Biso   1.000  C
  C52      1.0000 0.55410  0.94590  0.55410  Biso   1.000  C
  C53      1.0000 0.88820  0.61180  0.61180  Biso   1.000  C
  C54      1.0000 0.94590  0.55410  0.55410  Biso   1.000  C
  C55      1.0000 0.61180  0.88820  0.88820  Biso   1.000  C
  C56      1.0000 0.55410  0.94590  0.94590  Biso   1.000  C
  C57      1.0000 0.25000  0.25000  0.25000  Biso   1.000  C
  C58      1.0000 0.75000  0.75000  0.75000  Biso   1.000  C
  C59      1.0000 0.36569  0.36569  0.19789  Biso   1.000  C
  C60      1.0000 0.36569  0.36569  0.07073  Biso   1.000  C
  C61      1.0000 0.19789  0.07073  0.36569  Biso   1.000  C
  C62      1.0000 0.07073  0.19789  0.36569  Biso   1.000  C
  C63      1.0000 0.36569  0.19789  0.07073  Biso   1.000  C
  C64      1.0000 0.36569  0.07073  0.19789  Biso   1.000  C
  C65      1.0000 0.19789  0.36569  0.36569  Biso   1.000  C
  C66      1.0000 0.07073  0.36569  0.36569  Biso   1.000  C
  C67      1.0000 0.36569  0.07073  0.36569  Biso   1.000  C
  C68      1.0000 0.36569  0.19789  0.36569  Biso   1.000  C
  C69      1.0000 0.19789  0.36569  0.07073  Biso   1.000  C
  C70      1.0000 0.07073  0.36569  0.19789  Biso   1.000  C
  C71      1.0000 0.63431  0.63431  0.80211  Biso   1.000  C
  C72      1.0000 0.63431  0.63431  0.92927  Biso   1.000  C
  C73      1.0000 0.92927  0.80211  0.63431  Biso   1.000  C
  C74      1.0000 0.80211  0.92927  0.63431  Biso   1.000  C
  C75      1.0000 0.80211  0.63431  0.92927  Biso   1.000  C
  C76      1.0000 0.92927  0.63431  0.80211  Biso   1.000  C
  C77      1.0000 0.63431  0.80211  0.63431  Biso   1.000  C
  C78      1.0000 0.63431  0.92927  0.63431  Biso   1.000  C
  C79      1.0000 0.92927  0.63431  0.63431  Biso   1.000  C
  C80      1.0000 0.80211  0.63431  0.63431  Biso   1.000  C
  C81      1.0000 0.63431  0.80211  0.92927  Biso   1.000  C
  C82      1.0000 0.63431  0.92927  0.80211  Biso   1.000  C
  C83      1.0000 0.45110  0.45110  0.92847  Biso   1.000  C
  C84      1.0000 0.45110  0.45110  0.16934  Biso   1.000  C
  C85      1.0000 0.92847  0.16934  0.45110  Biso   1.000  C
  C86      1.0000 0.16934  0.92847  0.45110  Biso   1.000  C
  C87      1.0000 0.45110  0.92847  0.16934  Biso   1.000  C
  C88      1.0000 0.45110  0.16934  0.92847  Biso   1.000  C
  C89      1.0000 0.92847  0.45110  0.45110  Biso   1.000  C
  C90      1.0000 0.16934  0.45110  0.45110  Biso   1.000  C
  C91      1.0000 0.45110  0.16934  0.45110  Biso   1.000  C
  C92      1.0000 0.45110  0.92847  0.45110  Biso   1.000  C
  C93      1.0000 0.92847  0.45110  0.16934  Biso   1.000  C
  C94      1.0000 0.16934  0.45110  0.92847  Biso   1.000  C
  C95      1.0000 0.54890  0.54890  0.07153  Biso   1.000  C
  C96      1.0000 0.54890  0.54890  0.83066  Biso   1.000  C
  C97      1.0000 0.83066  0.07153  0.54890  Biso   1.000  C
  C98      1.0000 0.07153  0.83066  0.54890  Biso   1.000  C
  C99      1.0000 0.07153  0.54890  0.83066  Biso   1.000  C
  C100     1.0000 0.83066  0.54890  0.07153  Biso   1.000  C
  C101     1.0000 0.54890  0.07153  0.54890  Biso   1.000  C
  C102     1.0000 0.54890  0.83066  0.54890  Biso   1.000  C
  C103     1.0000 0.83066  0.54890  0.54890  Biso   1.000  C
  C104     1.0000 0.07153  0.54890  0.54890  Biso   1.000  C
  C105     1.0000 0.54890  0.07153  0.83066  Biso   1.000  C
  C106     1.0000 0.54890  0.83066  0.07153  Biso   1.000  C
  O1       1.0000 0.94077  0.00000  0.00000  Biso   1.000  O
  O2       1.0000 0.53084  0.41152  0.58688  Biso   1.000  O
  O3       1.0000 0.53084  0.58702  0.58688  Biso   1.000  O
  O4       1.0000 0.94077  0.17550  0.00000  Biso   1.000  O
  O5       1.0000 0.94073  0.99992  0.17570  Biso   1.000  O
  O6       1.0000 0.11604  0.00018  0.99987  Biso   1.000  O
  O7       1.0000 0.53089  0.58710  0.41118  Biso   1.000  O
  O8       1.0000 0.35558  0.58684  0.58701  Biso   1.000  O
  O9       1.0000 0.77625  0.84162  0.35908  Biso   1.000  O
  O10      1.0000 0.77529  0.84318  0.13784  Biso   1.000  O
  O11      1.0000 0.77237  0.13789  0.84403  Biso   1.000  O
  O12      1.0000 0.69536  0.44770  0.22780  Biso   1.000  O
  O13      1.0000 0.69632  0.22706  0.44904  Biso   1.000  O
  O14      1.0000 0.69924  0.22505  0.74285  Biso   1.000  O
  O15      1.0000 0.69536  0.74541  0.22780  Biso   1.000  O
  O16      1.0000 0.69632  0.74384  0.44904  Biso   1.000  O
  O17      1.0000 0.69924  0.44913  0.74285  Biso   1.000  O
  O18      1.0000 0.77625  0.13932  0.35908  Biso   1.000  O
  O19      1.0000 0.77529  0.35996  0.13784  Biso   1.000  O
  O20      1.0000 0.77237  0.36198  0.84403  Biso   1.000  O
  O21      1.0000 0.85263  0.91089  0.18022  Biso   1.000  O
  O22      1.0000 0.78792  0.84568  0.24012  Biso   1.000  O
  O23      1.0000 0.76042  0.81998  0.33243  Biso   1.000  O
  O24      1.0000 0.76047  0.82144  0.20175  Biso   1.000  O
  O25      1.0000 0.11696  0.91150  0.91165  Biso   1.000  O
  O26      1.0000 0.75885  0.20170  0.82009  Biso   1.000  O
  O27      1.0000 0.61898  0.41449  0.40666  Biso   1.000  O
  O28      1.0000 0.68369  0.34447  0.34676  Biso   1.000  O
  O29      1.0000 0.71119  0.38359  0.25445  Biso   1.000  O
  O30      1.0000 0.71114  0.25441  0.38512  Biso   1.000  O
  O31      1.0000 0.35465  0.41087  0.67523  Biso   1.000  O
  O32      1.0000 0.71277  0.25139  0.76679  Biso   1.000  O
  O33      1.0000 0.61898  0.67613  0.40666  Biso   1.000  O
  O34      1.0000 0.68369  0.74135  0.34676  Biso   1.000  O
  O35      1.0000 0.71119  0.76704  0.25445  Biso   1.000  O
  O36      1.0000 0.71114  0.76559  0.38512  Biso   1.000  O
  O37      1.0000 0.35465  0.67552  0.67523  Biso   1.000  O
  O38      1.0000 0.71277  0.38532  0.76679  Biso   1.000  O
  O39      1.0000 0.85263  0.17253  0.18022  Biso   1.000  O
  O40      1.0000 0.78792  0.24255  0.24012  Biso   1.000  O
  O41      1.0000 0.76042  0.20343  0.33243  Biso   1.000  O
  O42      1.0000 0.76047  0.33261  0.20175  Biso   1.000  O
  O43      1.0000 0.11696  0.17615  0.91165  Biso   1.000  O
  O44      1.0000 0.75885  0.33563  0.82009  Biso   1.000  O
  O45      1.0000 0.11498  0.91059  0.18012  Biso   1.000  O
  O46      1.0000 0.84921  0.17726  0.91255  Biso   1.000  O
  O47      1.0000 0.78770  0.24277  0.84303  Biso   1.000  O
  O48      1.0000 0.35664  0.67643  0.40676  Biso   1.000  O
  O49      1.0000 0.62240  0.40977  0.67433  Biso   1.000  O
  O50      1.0000 0.68391  0.34425  0.74385  Biso   1.000  O
  O51      1.0000 0.87026  0.92731  0.22449  Biso   1.000  O
  O52      1.0000 0.86825  0.92652  0.09667  Biso   1.000  O
  O53      1.0000 0.16665  0.92713  0.92807  Biso   1.000  O
  O54      1.0000 0.03513  0.92693  0.92797  Biso   1.000  O
  O55      1.0000 0.86904  0.09492  0.92637  Biso   1.000  O
  O56      1.0000 0.60135  0.49282  0.36238  Biso   1.000  O
  O57      1.0000 0.60336  0.36219  0.49021  Biso   1.000  O
  O58      1.0000 0.30497  0.49261  0.65880  Biso   1.000  O
  O59      1.0000 0.43649  0.36078  0.65890  Biso   1.000  O
  O60      1.0000 0.60257  0.36108  0.66051  Biso   1.000  O
  O61      1.0000 0.60135  0.65971  0.36238  Biso   1.000  O
  O62      1.0000 0.60336  0.66050  0.49021  Biso   1.000  O
  O63      1.0000 0.30497  0.65989  0.65880  Biso   1.000  O
  O64      1.0000 0.43649  0.66009  0.65890  Biso   1.000  O
  O65      1.0000 0.60257  0.49211  0.66051  Biso   1.000  O
  O66      1.0000 0.87026  0.09420  0.22449  Biso   1.000  O
  O67      1.0000 0.86825  0.22483  0.09667  Biso   1.000  O
  O68      1.0000 0.16665  0.09441  0.92807  Biso   1.000  O
  O69      1.0000 0.03513  0.22624  0.92797  Biso   1.000  O
  O70      1.0000 0.86904  0.22594  0.92637  Biso   1.000  O
  O71      1.0000 0.98314  0.04522  0.04267  Biso   1.000  O
  O72      1.0000 0.03544  0.92741  0.22600  Biso   1.000  O
  O73      1.0000 0.16636  0.92752  0.09487  Biso   1.000  O
  O74      1.0000 0.48847  0.54180  0.54420  Biso   1.000  O
  O75      1.0000 0.43617  0.65961  0.36088  Biso   1.000  O
