data_image0
_cell_length_a       18.0703
_cell_length_b       18.0703
_cell_length_c       18.0703
_cell_angle_alpha    60
_cell_angle_beta     60
_cell_angle_gamma    60

_symmetry_space_group_name_H-M    "P 1"
_symmetry_int_tables_number       1

loop_
  _symmetry_equiv_pos_as_xyz
  'x, y, z'

loop_
  _atom_site_label
  _atom_site_occupancy
  _atom_site_fract_x
  _atom_site_fract_y
  _atom_site_fract_z
  _atom_site_thermal_displace_type
  _atom_site_B_iso_or_equiv
  _atom_site_type_symbol
  Zn1      1.0000 0.29350  0.29350  0.29350  Biso   1.000  Zn
  Zn2      1.0000 0.29350  0.29350  0.11950  Biso   1.000  Zn
  Zn3      1.0000 0.29350  0.11950  0.29350  Biso   1.000  Zn
  Zn4      1.0000 0.11950  0.29350  0.29350  Biso   1.000  Zn
  Zn5      1.0000 0.70650  0.70650  0.70650  Biso   1.000  Zn
  Zn6      1.0000 0.70650  0.70650  0.88050  Biso   1.000  Zn
  Zn7      1.0000 0.88050  0.70650  0.70650  Biso   1.000  Zn
  Zn8      1.0000 0.70650  0.88050  0.70650  Biso   1.000  Zn
  C1       1.0000 0.47340  0.47340  0.96080  Biso   1.000  C
  C2       1.0000 0.47340  0.47340  0.09240  Biso   1.000  C
  C3       1.0000 0.96080  0.09240  0.47340  Biso   1.000  C
  C4       1.0000 0.09240  0.96080  0.47340  Biso   1.000  C
  C5       1.0000 0.47340  0.96080  0.09240  Biso   1.000  C
  C6       1.0000 0.47340  0.09240  0.96080  Biso   1.000  C
  C7       1.0000 0.96080  0.47340  0.47340  Biso   1.000  C
  C8       1.0000 0.09240  0.47340  0.47340  Biso   1.000  C
  C9       1.0000 0.47340  0.09240  0.47340  Biso   1.000  C
  C10      1.0000 0.47340  0.96080  0.47340  Biso   1.000  C
  C11      1.0000 0.96080  0.47340  0.09240  Biso   1.000  C
  C12      1.0000 0.09240  0.47340  0.96080  Biso   1.000  C
  C13      1.0000 0.52660  0.52660  0.03920  Biso   1.000  C
  C14      1.0000 0.52660  0.52660  0.90760  Biso   1.000  C
  C15      1.0000 0.90760  0.03920  0.52660  Biso   1.000  C
  C16      1.0000 0.03920  0.90760  0.52660  Biso   1.000  C
  C17      1.0000 0.03920  0.52660  0.90760  Biso   1.000  C
  C18      1.0000 0.90760  0.52660  0.03920  Biso   1.000  C
  C19      1.0000 0.52660  0.03920  0.52660  Biso   1.000  C
  C20      1.0000 0.52660  0.90760  0.52660  Biso   1.000  C
  C21      1.0000 0.90760  0.52660  0.52660  Biso   1.000  C
  C22      1.0000 0.03920  0.52660  0.52660  Biso   1.000  C
  C23      1.0000 0.52660  0.03920  0.90760  Biso   1.000  C
  C24      1.0000 0.52660  0.90760  0.03920  Biso   1.000  C
  C25      1.0000 0.38820  0.38820  0.11180  Biso   1.000  C
  C26      1.0000 0.44590  0.44590  0.05410  Biso   1.000  C
  C27      1.0000 0.11180  0.11180  0.38820  Biso   1.000  C
  C28      1.0000 0.05410  0.05410  0.44590  Biso   1.000  C
  C29      1.0000 0.38820  0.11180  0.11180  Biso   1.000  C
  C30      1.0000 0.44590  0.05410  0.05410  Biso   1.000  C
  C31      1.0000 0.11180  0.38820  0.38820  Biso   1.000  C
  C32      1.0000 0.05410  0.44590  0.44590  Biso   1.000  C
  C33      1.0000 0.38820  0.11180  0.38820  Biso   1.000  C
  C34      1.0000 0.44590  0.05410  0.44590  Biso   1.000  C
  C35      1.0000 0.11180  0.38820  0.11180  Biso   1.000  C
  C36      1.0000 0.05410  0.44590  0.05410  Biso   1.000  C
  C37      1.0000 0.61180  0.61180  0.88820  Biso   1.000  C
  C38      1.0000 0.55410  0.55410  0.94590  Biso   1.000  C
  C39      1.0000 0.88820  0.88820  0.61180  Biso   1.000  C
  C40      1.0000 0.94590  0.94590  0.55410  Biso   1.000  C
  C41      1.0000 0.88820  0.61180  0.88820  Biso   1.000  C
  C42      1.0000 0.94590  0.55410  0.94590  Biso   1.000  C
  C43      1.0000 0.61180  0.88820  0.61180  Biso   1.000  C
  C44      1.0000 0.55410  0.94590  0.55410  Biso   1.000  C
  C45      1.0000 0.88820  0.61180  0.61180  Biso   1.000  C
  C46      1.0000 0.94590  0.55410  0.55410  Biso   1.000  C
  C47      1.0000 0.61180  0.88820  0.88820  Biso   1.000  C
  C48      1.0000 0.55410  0.94590  0.94590  Biso   1.000  C
  O1       1.0000 0.25000  0.25000  0.25000  Biso   1.000  O
  O2       1.0000 0.75000  0.75000  0.75000  Biso   1.000  O
  O3       1.0000 0.36569  0.36569  0.19789  Biso   1.000  O
  O4       1.0000 0.36569  0.36569  0.07073  Biso   1.000  O
  O5       1.0000 0.19789  0.07073  0.36569  Biso   1.000  O
  O6       1.0000 0.07073  0.19789  0.36569  Biso   1.000  O
  O7       1.0000 0.36569  0.19789  0.07073  Biso   1.000  O
  O8       1.0000 0.36569  0.07073  0.19789  Biso   1.000  O
  O9       1.0000 0.19789  0.36569  0.36569  Biso   1.000  O
  O10      1.0000 0.07073  0.36569  0.36569  Biso   1.000  O
  O11      1.0000 0.36569  0.07073  0.36569  Biso   1.000  O
  O12      1.0000 0.36569  0.19789  0.36569  Biso   1.000  O
  O13      1.0000 0.19789  0.36569  0.07073  Biso   1.000  O
  O14      1.0000 0.07073  0.36569  0.19789  Biso   1.000  O
  O15      1.0000 0.63431  0.63431  0.80211  Biso   1.000  O
  O16      1.0000 0.63431  0.63431  0.92927  Biso   1.000  O
  O17      1.0000 0.92927  0.80211  0.63431  Biso   1.000  O
  O18      1.0000 0.80211  0.92927  0.63431  Biso   1.000  O
  O19      1.0000 0.80211  0.63431  0.92927  Biso   1.000  O
  O20      1.0000 0.92927  0.63431  0.80211  Biso   1.000  O
  O21      1.0000 0.63431  0.80211  0.63431  Biso   1.000  O
  O22      1.0000 0.63431  0.92927  0.63431  Biso   1.000  O
  O23      1.0000 0.92927  0.63431  0.63431  Biso   1.000  O
  O24      1.0000 0.80211  0.63431  0.63431  Biso   1.000  O
  O25      1.0000 0.63431  0.80211  0.92927  Biso   1.000  O
  O26      1.0000 0.63431  0.92927  0.80211  Biso   1.000  O
  H1       1.0000 0.45110  0.45110  0.92847  Biso   1.000  H
  H2       1.0000 0.45110  0.45110  0.16934  Biso   1.000  H
  H3       1.0000 0.92847  0.16934  0.45110  Biso   1.000  H
  H4       1.0000 0.16934  0.92847  0.45110  Biso   1.000  H
  H5       1.0000 0.45110  0.92847  0.16934  Biso   1.000  H
  H6       1.0000 0.45110  0.16934  0.92847  Biso   1.000  H
  H7       1.0000 0.92847  0.45110  0.45110  Biso   1.000  H
  H8       1.0000 0.16934  0.45110  0.45110  Biso   1.000  H
  H9       1.0000 0.45110  0.16934  0.45110  Biso   1.000  H
  H10      1.0000 0.45110  0.92847  0.45110  Biso   1.000  H
  H11      1.0000 0.92847  0.45110  0.16934  Biso   1.000  H
  H12      1.0000 0.16934  0.45110  0.92847  Biso   1.000  H
  H13      1.0000 0.54890  0.54890  0.07153  Biso   1.000  H
  H14      1.0000 0.54890  0.54890  0.83066  Biso   1.000  H
  H15      1.0000 0.83066  0.07153  0.54890  Biso   1.000  H
  H16      1.0000 0.07153  0.83066  0.54890  Biso   1.000  H
  H17      1.0000 0.07153  0.54890  0.83066  Biso   1.000  H
  H18      1.0000 0.83066  0.54890  0.07153  Biso   1.000  H
  H19      1.0000 0.54890  0.07153  0.54890  Biso   1.000  H
  H20      1.0000 0.54890  0.83066  0.54890  Biso   1.000  H
  H21      1.0000 0.83066  0.54890  0.54890  Biso   1.000  H
  H22      1.0000 0.07153  0.54890  0.54890  Biso   1.000  H
  H23      1.0000 0.54890  0.07153  0.83066  Biso   1.000  H
  H24      1.0000 0.54890  0.83066  0.07153  Biso   1.000  H
  Zn9      1.0000 0.48264  0.34918  0.67777  Biso   1.000  Zn
  Zn10     1.0000 0.65806  0.34918  0.50234  Biso   1.000  Zn
  Zn11     1.0000 0.48264  0.34918  0.50234  Biso   1.000  Zn
  Zn12     1.0000 0.48264  0.52461  0.50234  Biso   1.000  Zn
  Zn13     1.0000 0.06436  0.93889  0.91662  Biso   1.000  Zn
  Zn14     1.0000 0.88893  0.93889  0.09204  Biso   1.000  Zn
  Zn15     1.0000 0.06436  0.76346  0.09204  Biso   1.000  Zn
  Zn16     1.0000 0.06436  0.93889  0.09204  Biso   1.000  Zn
  H25      1.0000 0.32017  0.18672  0.86436  Biso   1.000  H
  H26      1.0000 0.84465  0.48751  0.33987  Biso   1.000  H
  H27      1.0000 0.32017  0.18672  0.64067  Biso   1.000  H
  H28      1.0000 0.62097  0.71120  0.33987  Biso   1.000  H
  H29      1.0000 0.32017  0.71120  0.33987  Biso   1.000  H
  H30      1.0000 0.62097  0.18672  0.86436  Biso   1.000  H
  H31      1.0000 0.32017  0.48751  0.33987  Biso   1.000  H
  H32      1.0000 0.84465  0.18672  0.64067  Biso   1.000  H
  H33      1.0000 0.84465  0.18672  0.33987  Biso   1.000  H
  H34      1.0000 0.32017  0.71120  0.64067  Biso   1.000  H
  H35      1.0000 0.62097  0.18672  0.33987  Biso   1.000  H
  H36      1.0000 0.32017  0.48751  0.86436  Biso   1.000  H
  H37      1.0000 0.22682  0.80056  0.73002  Biso   1.000  H
  H38      1.0000 0.70234  0.10135  0.25451  Biso   1.000  H
  H39      1.0000 0.22682  0.57687  0.95371  Biso   1.000  H
  H40      1.0000 0.92603  0.10135  0.25451  Biso   1.000  H
  H41      1.0000 0.22682  0.80056  0.25451  Biso   1.000  H
  H42      1.0000 0.92603  0.10135  0.73002  Biso   1.000  H
  H43      1.0000 0.22682  0.57687  0.25451  Biso   1.000  H
  H44      1.0000 0.70234  0.10135  0.95371  Biso   1.000  H
  H45      1.0000 0.70234  0.80056  0.25451  Biso   1.000  H
  H46      1.0000 0.22682  0.10135  0.95371  Biso   1.000  H
  H47      1.0000 0.92603  0.57687  0.25451  Biso   1.000  H
  H48      1.0000 0.22682  0.10135  0.73002  Biso   1.000  H
  C49      1.0000 0.30163  0.16817  0.83740  Biso   1.000  C
  C50      1.0000 0.81770  0.55156  0.32133  Biso   1.000  C
  C51      1.0000 0.30163  0.16817  0.70471  Biso   1.000  C
  C52      1.0000 0.68501  0.68424  0.32133  Biso   1.000  C
  C53      1.0000 0.30163  0.68424  0.32133  Biso   1.000  C
  C54      1.0000 0.68501  0.16817  0.83740  Biso   1.000  C
  C55      1.0000 0.30163  0.55156  0.32133  Biso   1.000  C
  C56      1.0000 0.81770  0.16817  0.70471  Biso   1.000  C
  C57      1.0000 0.81770  0.16817  0.32133  Biso   1.000  C
  C58      1.0000 0.30163  0.68424  0.70471  Biso   1.000  C
  C59      1.0000 0.68501  0.16817  0.32133  Biso   1.000  C
  C60      1.0000 0.30163  0.55156  0.83740  Biso   1.000  C
  C61      1.0000 0.24537  0.73651  0.75698  Biso   1.000  C
  C62      1.0000 0.72930  0.11989  0.27305  Biso   1.000  C
  C63      1.0000 0.24537  0.60382  0.88967  Biso   1.000  C
  C64      1.0000 0.86198  0.11989  0.27305  Biso   1.000  C
  C65      1.0000 0.24537  0.73651  0.27305  Biso   1.000  C
  C66      1.0000 0.86198  0.11989  0.75698  Biso   1.000  C
  C67      1.0000 0.24537  0.60382  0.27305  Biso   1.000  C
  C68      1.0000 0.72930  0.11989  0.88967  Biso   1.000  C
  C69      1.0000 0.72930  0.73651  0.27305  Biso   1.000  C
  C70      1.0000 0.24537  0.11989  0.88967  Biso   1.000  C
  C71      1.0000 0.86198  0.60382  0.27305  Biso   1.000  C
  C72      1.0000 0.24537  0.11989  0.75698  Biso   1.000  C
  C73      1.0000 0.32890  0.19545  0.74378  Biso   1.000  C
  C74      1.0000 0.38754  0.25408  0.68515  Biso   1.000  C
  C75      1.0000 0.72407  0.59062  0.34861  Biso   1.000  C
  C76      1.0000 0.66544  0.53199  0.40724  Biso   1.000  C
  C77      1.0000 0.32890  0.59062  0.34861  Biso   1.000  C
  C78      1.0000 0.38754  0.53199  0.40724  Biso   1.000  C
  C79      1.0000 0.72407  0.19545  0.74378  Biso   1.000  C
  C80      1.0000 0.66544  0.25408  0.68515  Biso   1.000  C
  C81      1.0000 0.72407  0.19545  0.34861  Biso   1.000  C
  C82      1.0000 0.66544  0.25408  0.40724  Biso   1.000  C
  C83      1.0000 0.32890  0.59062  0.74378  Biso   1.000  C
  C84      1.0000 0.38754  0.53199  0.68515  Biso   1.000  C
  C85      1.0000 0.21809  0.69745  0.85060  Biso   1.000  C
  C86      1.0000 0.15946  0.75608  0.90924  Biso   1.000  C
  C87      1.0000 0.82292  0.09262  0.24577  Biso   1.000  C
  C88      1.0000 0.88155  0.03398  0.18714  Biso   1.000  C
  C89      1.0000 0.21809  0.69745  0.24577  Biso   1.000  C
  C90      1.0000 0.15946  0.75608  0.18714  Biso   1.000  C
  C91      1.0000 0.82292  0.09262  0.85060  Biso   1.000  C
  C92      1.0000 0.88155  0.03398  0.90924  Biso   1.000  C
  C93      1.0000 0.82292  0.69745  0.24577  Biso   1.000  C
  C94      1.0000 0.88155  0.75608  0.18714  Biso   1.000  C
  C95      1.0000 0.21809  0.09262  0.85060  Biso   1.000  C
  C96      1.0000 0.15946  0.03398  0.90924  Biso   1.000  C
  O27      1.0000 0.52649  0.39304  0.54619  Biso   1.000  O
  O28      1.0000 0.02050  0.89503  0.04819  Biso   1.000  O
  O29      1.0000 0.40968  0.27622  0.72771  Biso   1.000  O
  O30      1.0000 0.70800  0.44515  0.42938  Biso   1.000  O
  O31      1.0000 0.40968  0.27622  0.59831  Biso   1.000  O
  O32      1.0000 0.57861  0.57455  0.42938  Biso   1.000  O
  O33      1.0000 0.40968  0.57455  0.42938  Biso   1.000  O
  O34      1.0000 0.57861  0.27622  0.72771  Biso   1.000  O
  O35      1.0000 0.40968  0.44515  0.42938  Biso   1.000  O
  O36      1.0000 0.70800  0.27622  0.59831  Biso   1.000  O
  O37      1.0000 0.70800  0.27622  0.42938  Biso   1.000  O
  O38      1.0000 0.40968  0.57455  0.59831  Biso   1.000  O
  O39      1.0000 0.57861  0.27622  0.42938  Biso   1.000  O
  O40      1.0000 0.40968  0.44515  0.72771  Biso   1.000  O
  O41      1.0000 0.13732  0.84291  0.86668  Biso   1.000  O
  O42      1.0000 0.83899  0.01185  0.16500  Biso   1.000  O
  O43      1.0000 0.13732  0.71352  0.99607  Biso   1.000  O
  O44      1.0000 0.96839  0.01185  0.16500  Biso   1.000  O
  O45      1.0000 0.13732  0.84291  0.16500  Biso   1.000  O
  O46      1.0000 0.96839  0.01185  0.86668  Biso   1.000  O
  O47      1.0000 0.13732  0.71352  0.16500  Biso   1.000  O
  O48      1.0000 0.83899  0.01185  0.99607  Biso   1.000  O
  O49      1.0000 0.83899  0.84291  0.16500  Biso   1.000  O
  O50      1.0000 0.13732  0.01185  0.99607  Biso   1.000  O
  O51      1.0000 0.96839  0.71352  0.16500  Biso   1.000  O
