data_image0
_cell_length_a       18.0703
_cell_length_b       18.0703
_cell_length_c       18.0703
_cell_angle_alpha    60
_cell_angle_beta     60
_cell_angle_gamma    60

_symmetry_space_group_name_H-M    "P 1"
_symmetry_int_tables_number       1

loop_
  _symmetry_equiv_pos_as_xyz
  'x, y, z'

loop_
  _atom_site_label
  _atom_site_occupancy
  _atom_site_fract_x
  _atom_site_fract_y
  _atom_site_fract_z
  _atom_site_thermal_displace_type
  _atom_site_B_iso_or_equiv
  _atom_site_type_symbol
  C1       1.0000 0.29350  0.29350  0.29350  Biso   1.000  C
  C2       1.0000 0.29350  0.29350  0.11950  Biso   1.000  C
  C3       1.0000 0.29350  0.11950  0.29350  Biso   1.000  C
  C4       1.0000 0.11950  0.29350  0.29350  Biso   1.000  C
  C5       1.0000 0.70650  0.70650  0.70650  Biso   1.000  C
  C6       1.0000 0.70650  0.70650  0.88050  Biso   1.000  C
  C7       1.0000 0.88050  0.70650  0.70650  Biso   1.000  C
  C8       1.0000 0.70650  0.88050  0.70650  Biso   1.000  C
  C9       1.0000 0.47340  0.47340  0.96080  Biso   1.000  C
  C10      1.0000 0.47340  0.47340  0.09240  Biso   1.000  C
  C11      1.0000 0.96080  0.09240  0.47340  Biso   1.000  C
  C12      1.0000 0.09240  0.96080  0.47340  Biso   1.000  C
  C13      1.0000 0.47340  0.96080  0.09240  Biso   1.000  C
  C14      1.0000 0.47340  0.09240  0.96080  Biso   1.000  C
  C15      1.0000 0.96080  0.47340  0.47340  Biso   1.000  C
  C16      1.0000 0.09240  0.47340  0.47340  Biso   1.000  C
  C17      1.0000 0.47340  0.09240  0.47340  Biso   1.000  C
  C18      1.0000 0.47340  0.96080  0.47340  Biso   1.000  C
  C19      1.0000 0.96080  0.47340  0.09240  Biso   1.000  C
  C20      1.0000 0.09240  0.47340  0.96080  Biso   1.000  C
  C21      1.0000 0.52660  0.52660  0.03920  Biso   1.000  C
  C22      1.0000 0.52660  0.52660  0.90760  Biso   1.000  C
  C23      1.0000 0.90760  0.03920  0.52660  Biso   1.000  C
  C24      1.0000 0.03920  0.90760  0.52660  Biso   1.000  C
  C25      1.0000 0.03920  0.52660  0.90760  Biso   1.000  C
  C26      1.0000 0.90760  0.52660  0.03920  Biso   1.000  C
  C27      1.0000 0.52660  0.03920  0.52660  Biso   1.000  C
  C28      1.0000 0.52660  0.90760  0.52660  Biso   1.000  C
  C29      1.0000 0.90760  0.52660  0.52660  Biso   1.000  C
  C30      1.0000 0.03920  0.52660  0.52660  Biso   1.000  C
  C31      1.0000 0.52660  0.03920  0.90760  Biso   1.000  C
  C32      1.0000 0.52660  0.90760  0.03920  Biso   1.000  C
  C33      1.0000 0.38820  0.38820  0.11180  Biso   1.000  C
  C34      1.0000 0.44590  0.44590  0.05410  Biso   1.000  C
  C35      1.0000 0.11180  0.11180  0.38820  Biso   1.000  C
  C36      1.0000 0.05410  0.05410  0.44590  Biso   1.000  C
  C37      1.0000 0.38820  0.11180  0.11180  Biso   1.000  C
  C38      1.0000 0.44590  0.05410  0.05410  Biso   1.000  C
  C39      1.0000 0.11180  0.38820  0.38820  Biso   1.000  C
  C40      1.0000 0.05410  0.44590  0.44590  Biso   1.000  C
  C41      1.0000 0.38820  0.11180  0.38820  Biso   1.000  C
  C42      1.0000 0.44590  0.05410  0.44590  Biso   1.000  C
  C43      1.0000 0.11180  0.38820  0.11180  Biso   1.000  C
  C44      1.0000 0.05410  0.44590  0.05410  Biso   1.000  C
  C45      1.0000 0.61180  0.61180  0.88820  Biso   1.000  C
  C46      1.0000 0.55410  0.55410  0.94590  Biso   1.000  C
  C47      1.0000 0.88820  0.88820  0.61180  Biso   1.000  C
  C48      1.0000 0.94590  0.94590  0.55410  Biso   1.000  C
  C49      1.0000 0.88820  0.61180  0.88820  Biso   1.000  C
  C50      1.0000 0.94590  0.55410  0.94590  Biso   1.000  C
  C51      1.0000 0.61180  0.88820  0.61180  Biso   1.000  C
  C52      1.0000 0.55410  0.94590  0.55410  Biso   1.000  C
  C53      1.0000 0.88820  0.61180  0.61180  Biso   1.000  C
  C54      1.0000 0.94590  0.55410  0.55410  Biso   1.000  C
  C55      1.0000 0.61180  0.88820  0.88820  Biso   1.000  C
  C56      1.0000 0.55410  0.94590  0.94590  Biso   1.000  C
  C57      1.0000 0.25000  0.25000  0.25000  Biso   1.000  C
  C58      1.0000 0.75000  0.75000  0.75000  Biso   1.000  C
  C59      1.0000 0.36569  0.36569  0.19789  Biso   1.000  C
  C60      1.0000 0.36569  0.36569  0.07073  Biso   1.000  C
  C61      1.0000 0.19789  0.07073  0.36569  Biso   1.000  C
  C62      1.0000 0.07073  0.19789  0.36569  Biso   1.000  C
  C63      1.0000 0.36569  0.19789  0.07073  Biso   1.000  C
  C64      1.0000 0.36569  0.07073  0.19789  Biso   1.000  C
  C65      1.0000 0.19789  0.36569  0.36569  Biso   1.000  C
  C66      1.0000 0.07073  0.36569  0.36569  Biso   1.000  C
  C67      1.0000 0.36569  0.07073  0.36569  Biso   1.000  C
  C68      1.0000 0.36569  0.19789  0.36569  Biso   1.000  C
  C69      1.0000 0.19789  0.36569  0.07073  Biso   1.000  C
  C70      1.0000 0.07073  0.36569  0.19789  Biso   1.000  C
  C71      1.0000 0.63431  0.63431  0.80211  Biso   1.000  C
  C72      1.0000 0.63431  0.63431  0.92927  Biso   1.000  C
  C73      1.0000 0.92927  0.80211  0.63431  Biso   1.000  C
  C74      1.0000 0.80211  0.92927  0.63431  Biso   1.000  C
  C75      1.0000 0.80211  0.63431  0.92927  Biso   1.000  C
  C76      1.0000 0.92927  0.63431  0.80211  Biso   1.000  C
  C77      1.0000 0.63431  0.80211  0.63431  Biso   1.000  C
  C78      1.0000 0.63431  0.92927  0.63431  Biso   1.000  C
  C79      1.0000 0.92927  0.63431  0.63431  Biso   1.000  C
  C80      1.0000 0.80211  0.63431  0.63431  Biso   1.000  C
  C81      1.0000 0.63431  0.80211  0.92927  Biso   1.000  C
  C82      1.0000 0.63431  0.92927  0.80211  Biso   1.000  C
  C83      1.0000 0.45110  0.45110  0.92847  Biso   1.000  C
  C84      1.0000 0.45110  0.45110  0.16934  Biso   1.000  C
  C85      1.0000 0.92847  0.16934  0.45110  Biso   1.000  C
  C86      1.0000 0.16934  0.92847  0.45110  Biso   1.000  C
  C87      1.0000 0.45110  0.92847  0.16934  Biso   1.000  C
  C88      1.0000 0.45110  0.16934  0.92847  Biso   1.000  C
  C89      1.0000 0.92847  0.45110  0.45110  Biso   1.000  C
  C90      1.0000 0.16934  0.45110  0.45110  Biso   1.000  C
  C91      1.0000 0.45110  0.16934  0.45110  Biso   1.000  C
  C92      1.0000 0.45110  0.92847  0.45110  Biso   1.000  C
  C93      1.0000 0.92847  0.45110  0.16934  Biso   1.000  C
  C94      1.0000 0.16934  0.45110  0.92847  Biso   1.000  C
  C95      1.0000 0.54890  0.54890  0.07153  Biso   1.000  C
  C96      1.0000 0.54890  0.54890  0.83066  Biso   1.000  C
  C97      1.0000 0.83066  0.07153  0.54890  Biso   1.000  C
  C98      1.0000 0.07153  0.83066  0.54890  Biso   1.000  C
  C99      1.0000 0.07153  0.54890  0.83066  Biso   1.000  C
  C100     1.0000 0.83066  0.54890  0.07153  Biso   1.000  C
  C101     1.0000 0.54890  0.07153  0.54890  Biso   1.000  C
  C102     1.0000 0.54890  0.83066  0.54890  Biso   1.000  C
  C103     1.0000 0.83066  0.54890  0.54890  Biso   1.000  C
  C104     1.0000 0.07153  0.54890  0.54890  Biso   1.000  C
  C105     1.0000 0.54890  0.07153  0.83066  Biso   1.000  C
  C106     1.0000 0.54890  0.83066  0.07153  Biso   1.000  C
  O1       1.0000 0.16602  0.00000  0.00000  Biso   1.000  O
  O2       1.0000 0.57242  0.40640  0.59346  Biso   1.000  O
  O3       1.0000 0.39579  0.58304  0.59346  Biso   1.000  O
  O4       1.0000 0.98938  0.17664  0.00000  Biso   1.000  O
  O5       1.0000 0.98904  0.99966  0.17686  Biso   1.000  O
  O6       1.0000 0.98923  0.99985  0.99990  Biso   1.000  O
  O7       1.0000 0.57277  0.58338  0.41660  Biso   1.000  O
  O8       1.0000 0.57257  0.58319  0.59356  Biso   1.000  O
  O9       1.0000 0.82768  0.34801  0.14501  Biso   1.000  O
  O10      1.0000 0.82443  0.14110  0.35885  Biso   1.000  O
  O11      1.0000 0.82861  0.34692  0.83824  Biso   1.000  O
  O12      1.0000 0.82456  0.14365  0.83592  Biso   1.000  O
  O13      1.0000 0.33913  0.14163  0.84077  Biso   1.000  O
  O14      1.0000 0.22441  0.74475  0.44845  Biso   1.000  O
  O15      1.0000 0.43133  0.74799  0.23461  Biso   1.000  O
  O16      1.0000 0.22550  0.74382  0.75522  Biso   1.000  O
  O17      1.0000 0.42877  0.74786  0.75754  Biso   1.000  O
  O18      1.0000 0.43079  0.23329  0.75269  Biso   1.000  O
  O19      1.0000 0.73412  0.23503  0.44845  Biso   1.000  O
  O20      1.0000 0.73738  0.44194  0.23461  Biso   1.000  O
  O21      1.0000 0.73320  0.23612  0.75522  Biso   1.000  O
  O22      1.0000 0.73724  0.43939  0.75754  Biso   1.000  O
  O23      1.0000 0.22267  0.44141  0.75269  Biso   1.000  O
  O24      1.0000 0.33740  0.83829  0.14501  Biso   1.000  O
  O25      1.0000 0.13048  0.83505  0.35885  Biso   1.000  O
  O26      1.0000 0.33630  0.83922  0.83824  Biso   1.000  O
  O27      1.0000 0.13303  0.83518  0.83592  Biso   1.000  O
  O28      1.0000 0.13102  0.34975  0.84077  Biso   1.000  O
  O29      1.0000 0.82576  0.83637  0.14289  Biso   1.000  O
  O30      1.0000 0.82463  0.83525  0.36118  Biso   1.000  O
  O31      1.0000 0.73605  0.74666  0.45057  Biso   1.000  O
  O32      1.0000 0.73717  0.74779  0.23228  Biso   1.000  O
  O33      1.0000 0.89423  0.18524  0.18178  Biso   1.000  O
  O34      1.0000 0.83393  0.24393  0.24360  Biso   1.000  O
  O35      1.0000 0.80879  0.32205  0.20784  Biso   1.000  O
  O36      1.0000 0.80756  0.20382  0.33259  Biso   1.000  O
  O37      1.0000 0.89546  0.18203  0.90188  Biso   1.000  O
  O38      1.0000 0.83759  0.24112  0.84602  Biso   1.000  O
  O39      1.0000 0.81043  0.32045  0.82006  Biso   1.000  O
  O40      1.0000 0.80759  0.20627  0.81824  Biso   1.000  O
  O41      1.0000 0.31277  0.20435  0.82046  Biso   1.000  O
  O42      1.0000 0.38718  0.67819  0.41168  Biso   1.000  O
  O43      1.0000 0.32850  0.73849  0.34986  Biso   1.000  O
  O44      1.0000 0.25037  0.76364  0.38562  Biso   1.000  O
  O45      1.0000 0.36860  0.76486  0.26087  Biso   1.000  O
  O46      1.0000 0.39040  0.67696  0.69158  Biso   1.000  O
  O47      1.0000 0.33130  0.73483  0.74744  Biso   1.000  O
  O48      1.0000 0.25196  0.76200  0.77340  Biso   1.000  O
  O49      1.0000 0.36615  0.76483  0.77522  Biso   1.000  O
  O50      1.0000 0.36806  0.25965  0.77300  Biso   1.000  O
  O51      1.0000 0.66757  0.39779  0.41168  Biso   1.000  O
  O52      1.0000 0.72788  0.33911  0.34986  Biso   1.000  O
  O53      1.0000 0.75301  0.26099  0.38562  Biso   1.000  O
  O54      1.0000 0.75424  0.37922  0.26087  Biso   1.000  O
  O55      1.0000 0.66634  0.40101  0.69158  Biso   1.000  O
  O56      1.0000 0.72422  0.34192  0.74744  Biso   1.000  O
  O57      1.0000 0.75138  0.26258  0.77340  Biso   1.000  O
  O58      1.0000 0.75421  0.37677  0.77522  Biso   1.000  O
  O59      1.0000 0.24904  0.37869  0.77300  Biso   1.000  O
  O60      1.0000 0.17462  0.90485  0.18178  Biso   1.000  O
  O61      1.0000 0.23331  0.84455  0.24360  Biso   1.000  O
  O62      1.0000 0.31144  0.81940  0.20784  Biso   1.000  O
  O63      1.0000 0.19320  0.81818  0.33259  Biso   1.000  O
  O64      1.0000 0.17141  0.90608  0.90188  Biso   1.000  O
  O65      1.0000 0.23050  0.84821  0.84602  Biso   1.000  O
  O66      1.0000 0.30984  0.82104  0.82006  Biso   1.000  O
  O67      1.0000 0.19566  0.81821  0.81824  Biso   1.000  O
  O68      1.0000 0.19374  0.32338  0.82046  Biso   1.000  O
  O69      1.0000 0.89343  0.90405  0.18865  Biso   1.000  O
  O70      1.0000 0.83565  0.84627  0.24138  Biso   1.000  O
  O71      1.0000 0.80818  0.81880  0.20552  Biso   1.000  O
  O72      1.0000 0.80696  0.81758  0.33380  Biso   1.000  O
  O73      1.0000 0.16959  0.18021  0.90996  Biso   1.000  O
  O74      1.0000 0.23191  0.24253  0.84592  Biso   1.000  O
  O75      1.0000 0.66838  0.67899  0.40481  Biso   1.000  O
  O76      1.0000 0.72615  0.73677  0.35208  Biso   1.000  O
  O77      1.0000 0.75363  0.76424  0.38794  Biso   1.000  O
  O78      1.0000 0.75484  0.76546  0.25966  Biso   1.000  O
  O79      1.0000 0.39222  0.40283  0.68350  Biso   1.000  O
  O80      1.0000 0.32989  0.34051  0.74754  Biso   1.000  O
  O81      1.0000 0.91383  0.09898  0.22814  Biso   1.000  O
  O82      1.0000 0.91595  0.22959  0.09673  Biso   1.000  O
  O83      1.0000 0.91243  0.09799  0.92865  Biso   1.000  O
  O84      1.0000 0.91536  0.22657  0.92461  Biso   1.000  O
  O85      1.0000 0.21605  0.09698  0.92743  Biso   1.000  O
  O86      1.0000 0.47344  0.65859  0.36532  Biso   1.000  O
  O87      1.0000 0.34283  0.65646  0.49673  Biso   1.000  O
  O88      1.0000 0.47443  0.65999  0.66481  Biso   1.000  O
  O89      1.0000 0.34585  0.65706  0.66885  Biso   1.000  O
  O90      1.0000 0.47545  0.35637  0.66603  Biso   1.000  O
  O91      1.0000 0.64798  0.48406  0.36532  Biso   1.000  O
  O92      1.0000 0.64585  0.35345  0.49673  Biso   1.000  O
  O93      1.0000 0.64938  0.48505  0.66481  Biso   1.000  O
  O94      1.0000 0.64645  0.35647  0.66885  Biso   1.000  O
  O95      1.0000 0.34575  0.48606  0.66603  Biso   1.000  O
  O96      1.0000 0.08836  0.92445  0.22814  Biso   1.000  O
  O97      1.0000 0.21897  0.92657  0.09673  Biso   1.000  O
  O98      1.0000 0.08737  0.92305  0.92865  Biso   1.000  O
  O99      1.0000 0.21595  0.92598  0.92461  Biso   1.000  O
  O100     1.0000 0.08636  0.22667  0.92743  Biso   1.000  O
  O101     1.0000 0.03363  0.04425  0.04451  Biso   1.000  O
  O102     1.0000 0.91484  0.92546  0.22744  Biso   1.000  O
  O103     1.0000 0.91252  0.92314  0.10481  Biso   1.000  O
  O104     1.0000 0.52818  0.53879  0.54895  Biso   1.000  O
  O105     1.0000 0.64697  0.65758  0.36602  Biso   1.000  O
