data_image0
_cell_length_a       18.0703
_cell_length_b       18.0703
_cell_length_c       18.0703
_cell_angle_alpha    60
_cell_angle_beta     60
_cell_angle_gamma    60

_symmetry_space_group_name_H-M    "P 1"
_symmetry_int_tables_number       1

loop_
  _symmetry_equiv_pos_as_xyz
  'x, y, z'

loop_
  _atom_site_label
  _atom_site_occupancy
  _atom_site_fract_x
  _atom_site_fract_y
  _atom_site_fract_z
  _atom_site_thermal_displace_type
  _atom_site_B_iso_or_equiv
  _atom_site_type_symbol
  Zn1      1.0000 0.29350  0.29350  0.29350  Biso   1.000  Zn
  Zn2      1.0000 0.29350  0.29350  0.11950  Biso   1.000  Zn
  Zn3      1.0000 0.29350  0.11950  0.29350  Biso   1.000  Zn
  Zn4      1.0000 0.11950  0.29350  0.29350  Biso   1.000  Zn
  Zn5      1.0000 0.70650  0.70650  0.70650  Biso   1.000  Zn
  Zn6      1.0000 0.70650  0.70650  0.88050  Biso   1.000  Zn
  Zn7      1.0000 0.88050  0.70650  0.70650  Biso   1.000  Zn
  Zn8      1.0000 0.70650  0.88050  0.70650  Biso   1.000  Zn
  C1       1.0000 0.47340  0.47340  0.96080  Biso   1.000  C
  C2       1.0000 0.47340  0.47340  0.09240  Biso   1.000  C
  C3       1.0000 0.96080  0.09240  0.47340  Biso   1.000  C
  C4       1.0000 0.09240  0.96080  0.47340  Biso   1.000  C
  C5       1.0000 0.47340  0.96080  0.09240  Biso   1.000  C
  C6       1.0000 0.47340  0.09240  0.96080  Biso   1.000  C
  C7       1.0000 0.96080  0.47340  0.47340  Biso   1.000  C
  C8       1.0000 0.09240  0.47340  0.47340  Biso   1.000  C
  C9       1.0000 0.47340  0.09240  0.47340  Biso   1.000  C
  C10      1.0000 0.47340  0.96080  0.47340  Biso   1.000  C
  C11      1.0000 0.96080  0.47340  0.09240  Biso   1.000  C
  C12      1.0000 0.09240  0.47340  0.96080  Biso   1.000  C
  C13      1.0000 0.52660  0.52660  0.03920  Biso   1.000  C
  C14      1.0000 0.52660  0.52660  0.90760  Biso   1.000  C
  C15      1.0000 0.90760  0.03920  0.52660  Biso   1.000  C
  C16      1.0000 0.03920  0.90760  0.52660  Biso   1.000  C
  C17      1.0000 0.03920  0.52660  0.90760  Biso   1.000  C
  C18      1.0000 0.90760  0.52660  0.03920  Biso   1.000  C
  C19      1.0000 0.52660  0.03920  0.52660  Biso   1.000  C
  C20      1.0000 0.52660  0.90760  0.52660  Biso   1.000  C
  C21      1.0000 0.90760  0.52660  0.52660  Biso   1.000  C
  C22      1.0000 0.03920  0.52660  0.52660  Biso   1.000  C
  C23      1.0000 0.52660  0.03920  0.90760  Biso   1.000  C
  C24      1.0000 0.52660  0.90760  0.03920  Biso   1.000  C
  C25      1.0000 0.38820  0.38820  0.11180  Biso   1.000  C
  C26      1.0000 0.44590  0.44590  0.05410  Biso   1.000  C
  C27      1.0000 0.11180  0.11180  0.38820  Biso   1.000  C
  C28      1.0000 0.05410  0.05410  0.44590  Biso   1.000  C
  C29      1.0000 0.38820  0.11180  0.11180  Biso   1.000  C
  C30      1.0000 0.44590  0.05410  0.05410  Biso   1.000  C
  C31      1.0000 0.11180  0.38820  0.38820  Biso   1.000  C
  C32      1.0000 0.05410  0.44590  0.44590  Biso   1.000  C
  C33      1.0000 0.38820  0.11180  0.38820  Biso   1.000  C
  C34      1.0000 0.44590  0.05410  0.44590  Biso   1.000  C
  C35      1.0000 0.11180  0.38820  0.11180  Biso   1.000  C
  C36      1.0000 0.05410  0.44590  0.05410  Biso   1.000  C
  C37      1.0000 0.61180  0.61180  0.88820  Biso   1.000  C
  C38      1.0000 0.55410  0.55410  0.94590  Biso   1.000  C
  C39      1.0000 0.88820  0.88820  0.61180  Biso   1.000  C
  C40      1.0000 0.94590  0.94590  0.55410  Biso   1.000  C
  C41      1.0000 0.88820  0.61180  0.88820  Biso   1.000  C
  C42      1.0000 0.94590  0.55410  0.94590  Biso   1.000  C
  C43      1.0000 0.61180  0.88820  0.61180  Biso   1.000  C
  C44      1.0000 0.55410  0.94590  0.55410  Biso   1.000  C
  C45      1.0000 0.88820  0.61180  0.61180  Biso   1.000  C
  C46      1.0000 0.94590  0.55410  0.55410  Biso   1.000  C
  C47      1.0000 0.61180  0.88820  0.88820  Biso   1.000  C
  C48      1.0000 0.55410  0.94590  0.94590  Biso   1.000  C
  O1       1.0000 0.25000  0.25000  0.25000  Biso   1.000  O
  O2       1.0000 0.75000  0.75000  0.75000  Biso   1.000  O
  O3       1.0000 0.36569  0.36569  0.19789  Biso   1.000  O
  O4       1.0000 0.36569  0.36569  0.07073  Biso   1.000  O
  O5       1.0000 0.19789  0.07073  0.36569  Biso   1.000  O
  O6       1.0000 0.07073  0.19789  0.36569  Biso   1.000  O
  O7       1.0000 0.36569  0.19789  0.07073  Biso   1.000  O
  O8       1.0000 0.36569  0.07073  0.19789  Biso   1.000  O
  O9       1.0000 0.19789  0.36569  0.36569  Biso   1.000  O
  O10      1.0000 0.07073  0.36569  0.36569  Biso   1.000  O
  O11      1.0000 0.36569  0.07073  0.36569  Biso   1.000  O
  O12      1.0000 0.36569  0.19789  0.36569  Biso   1.000  O
  O13      1.0000 0.19789  0.36569  0.07073  Biso   1.000  O
  O14      1.0000 0.07073  0.36569  0.19789  Biso   1.000  O
  O15      1.0000 0.63431  0.63431  0.80211  Biso   1.000  O
  O16      1.0000 0.63431  0.63431  0.92927  Biso   1.000  O
  O17      1.0000 0.92927  0.80211  0.63431  Biso   1.000  O
  O18      1.0000 0.80211  0.92927  0.63431  Biso   1.000  O
  O19      1.0000 0.80211  0.63431  0.92927  Biso   1.000  O
  O20      1.0000 0.92927  0.63431  0.80211  Biso   1.000  O
  O21      1.0000 0.63431  0.80211  0.63431  Biso   1.000  O
  O22      1.0000 0.63431  0.92927  0.63431  Biso   1.000  O
  O23      1.0000 0.92927  0.63431  0.63431  Biso   1.000  O
  O24      1.0000 0.80211  0.63431  0.63431  Biso   1.000  O
  O25      1.0000 0.63431  0.80211  0.92927  Biso   1.000  O
  O26      1.0000 0.63431  0.92927  0.80211  Biso   1.000  O
  H1       1.0000 0.45110  0.45110  0.92847  Biso   1.000  H
  H2       1.0000 0.45110  0.45110  0.16934  Biso   1.000  H
  H3       1.0000 0.92847  0.16934  0.45110  Biso   1.000  H
  H4       1.0000 0.16934  0.92847  0.45110  Biso   1.000  H
  H5       1.0000 0.45110  0.92847  0.16934  Biso   1.000  H
  H6       1.0000 0.45110  0.16934  0.92847  Biso   1.000  H
  H7       1.0000 0.92847  0.45110  0.45110  Biso   1.000  H
  H8       1.0000 0.16934  0.45110  0.45110  Biso   1.000  H
  H9       1.0000 0.45110  0.16934  0.45110  Biso   1.000  H
  H10      1.0000 0.45110  0.92847  0.45110  Biso   1.000  H
  H11      1.0000 0.92847  0.45110  0.16934  Biso   1.000  H
  H12      1.0000 0.16934  0.45110  0.92847  Biso   1.000  H
  H13      1.0000 0.54890  0.54890  0.07153  Biso   1.000  H
  H14      1.0000 0.54890  0.54890  0.83066  Biso   1.000  H
  H15      1.0000 0.83066  0.07153  0.54890  Biso   1.000  H
  H16      1.0000 0.07153  0.83066  0.54890  Biso   1.000  H
  H17      1.0000 0.07153  0.54890  0.83066  Biso   1.000  H
  H18      1.0000 0.83066  0.54890  0.07153  Biso   1.000  H
  H19      1.0000 0.54890  0.07153  0.54890  Biso   1.000  H
  H20      1.0000 0.54890  0.83066  0.54890  Biso   1.000  H
  H21      1.0000 0.83066  0.54890  0.54890  Biso   1.000  H
  H22      1.0000 0.07153  0.54890  0.54890  Biso   1.000  H
  H23      1.0000 0.54890  0.07153  0.83066  Biso   1.000  H
  H24      1.0000 0.54890  0.83066  0.07153  Biso   1.000  H
  Zn9      1.0000 0.48264  0.34918  0.67777  Biso   1.000  Zn
  Zn10     1.0000 0.65850  0.34918  0.50190  Biso   1.000  Zn
  Zn11     1.0000 0.48264  0.34918  0.50190  Biso   1.000  Zn
  Zn12     1.0000 0.48264  0.52505  0.50190  Biso   1.000  Zn
  Zn13     1.0000 0.08432  0.93254  0.90939  Biso   1.000  Zn
  Zn14     1.0000 0.90845  0.93254  0.08526  Biso   1.000  Zn
  Zn15     1.0000 0.08432  0.75667  0.08526  Biso   1.000  Zn
  Zn16     1.0000 0.08432  0.93254  0.08526  Biso   1.000  Zn
  H25      1.0000 0.63507  0.18526  0.85318  Biso   1.000  H
  H26      1.0000 0.84308  0.18526  0.64517  Biso   1.000  H
  H27      1.0000 0.32788  0.49245  0.33798  Biso   1.000  H
  H28      1.0000 0.32788  0.70046  0.33798  Biso   1.000  H
  H29      1.0000 0.32788  0.70046  0.64517  Biso   1.000  H
  H30      1.0000 0.32788  0.49245  0.85318  Biso   1.000  H
  H31      1.0000 0.63507  0.18526  0.33798  Biso   1.000  H
  H32      1.0000 0.84308  0.18526  0.33798  Biso   1.000  H
  H33      1.0000 0.84308  0.49245  0.33798  Biso   1.000  H
  H34      1.0000 0.63507  0.70046  0.33798  Biso   1.000  H
  H35      1.0000 0.32788  0.18526  0.64517  Biso   1.000  H
  H36      1.0000 0.32788  0.18526  0.85318  Biso   1.000  H
  H37      1.0000 0.93188  0.09646  0.73398  Biso   1.000  H
  H38      1.0000 0.72388  0.09646  0.94199  Biso   1.000  H
  H39      1.0000 0.23907  0.58126  0.24917  Biso   1.000  H
  H40      1.0000 0.23907  0.78927  0.24917  Biso   1.000  H
  H41      1.0000 0.23907  0.09646  0.94199  Biso   1.000  H
  H42      1.0000 0.23907  0.09646  0.73398  Biso   1.000  H
  H43      1.0000 0.93188  0.58126  0.24917  Biso   1.000  H
  H44      1.0000 0.72388  0.78927  0.24917  Biso   1.000  H
  H45      1.0000 0.72388  0.09646  0.24917  Biso   1.000  H
  H46      1.0000 0.93188  0.09646  0.24917  Biso   1.000  H
  H47      1.0000 0.23907  0.58126  0.94199  Biso   1.000  H
  H48      1.0000 0.23907  0.78927  0.73398  Biso   1.000  H
  C49      1.0000 0.69764  0.16750  0.82613  Biso   1.000  C
  C50      1.0000 0.81603  0.16750  0.70774  Biso   1.000  C
  C51      1.0000 0.31012  0.55502  0.32022  Biso   1.000  C
  C52      1.0000 0.31012  0.67342  0.32022  Biso   1.000  C
  C53      1.0000 0.31012  0.67342  0.70774  Biso   1.000  C
  C54      1.0000 0.31012  0.55502  0.82613  Biso   1.000  C
  C55      1.0000 0.69764  0.16750  0.32022  Biso   1.000  C
  C56      1.0000 0.81603  0.16750  0.32022  Biso   1.000  C
  C57      1.0000 0.81603  0.55502  0.32022  Biso   1.000  C
  C58      1.0000 0.69764  0.67342  0.32022  Biso   1.000  C
  C59      1.0000 0.31012  0.16750  0.70774  Biso   1.000  C
  C60      1.0000 0.31012  0.16750  0.82613  Biso   1.000  C
  C61      1.0000 0.86932  0.11422  0.76102  Biso   1.000  C
  C62      1.0000 0.75092  0.11422  0.87942  Biso   1.000  C
  C63      1.0000 0.25684  0.60830  0.26694  Biso   1.000  C
  C64      1.0000 0.25684  0.72670  0.26694  Biso   1.000  C
  C65      1.0000 0.25684  0.11422  0.87942  Biso   1.000  C
  C66      1.0000 0.25684  0.11422  0.76102  Biso   1.000  C
  C67      1.0000 0.86932  0.60830  0.26694  Biso   1.000  C
  C68      1.0000 0.75092  0.72670  0.26694  Biso   1.000  C
  C69      1.0000 0.75092  0.11422  0.26694  Biso   1.000  C
  C70      1.0000 0.86932  0.11422  0.26694  Biso   1.000  C
  C71      1.0000 0.25684  0.60830  0.87942  Biso   1.000  C
  C72      1.0000 0.25684  0.72670  0.76102  Biso   1.000  C
  C73      1.0000 0.66647  0.25328  0.68574  Biso   1.000  C
  C74      1.0000 0.72470  0.19505  0.74397  Biso   1.000  C
  C75      1.0000 0.38673  0.53302  0.40600  Biso   1.000  C
  C76      1.0000 0.32851  0.59125  0.34777  Biso   1.000  C
  C77      1.0000 0.38673  0.53302  0.68574  Biso   1.000  C
  C78      1.0000 0.32851  0.59125  0.74397  Biso   1.000  C
  C79      1.0000 0.66647  0.25328  0.40600  Biso   1.000  C
  C80      1.0000 0.72470  0.19505  0.34777  Biso   1.000  C
  C81      1.0000 0.66647  0.53302  0.40600  Biso   1.000  C
  C82      1.0000 0.72470  0.59125  0.34777  Biso   1.000  C
  C83      1.0000 0.38673  0.25328  0.68574  Biso   1.000  C
  C84      1.0000 0.32851  0.19505  0.74397  Biso   1.000  C
  C85      1.0000 0.90048  0.02844  0.90142  Biso   1.000  C
  C86      1.0000 0.84225  0.08667  0.84319  Biso   1.000  C
  C87      1.0000 0.18022  0.74870  0.18116  Biso   1.000  C
  C88      1.0000 0.23845  0.69047  0.23939  Biso   1.000  C
  C89      1.0000 0.18022  0.02844  0.90142  Biso   1.000  C
  C90      1.0000 0.23845  0.08667  0.84319  Biso   1.000  C
  C91      1.0000 0.90048  0.74870  0.18116  Biso   1.000  C
  C92      1.0000 0.84225  0.69047  0.23939  Biso   1.000  C
  C93      1.0000 0.90048  0.02844  0.18116  Biso   1.000  C
  C94      1.0000 0.84225  0.08667  0.23939  Biso   1.000  C
  C95      1.0000 0.18022  0.74870  0.90142  Biso   1.000  C
  C96      1.0000 0.23845  0.69047  0.84319  Biso   1.000  C
  O27      1.0000 0.52660  0.39315  0.54587  Biso   1.000  O
  O28      1.0000 0.04035  0.88857  0.04129  Biso   1.000  O
  O29      1.0000 0.58244  0.27604  0.72426  Biso   1.000  O
  O30      1.0000 0.70499  0.27604  0.60171  Biso   1.000  O
  O31      1.0000 0.40949  0.44899  0.42876  Biso   1.000  O
  O32      1.0000 0.40949  0.57154  0.42876  Biso   1.000  O
  O33      1.0000 0.40949  0.57154  0.60171  Biso   1.000  O
  O34      1.0000 0.40949  0.44899  0.72426  Biso   1.000  O
  O35      1.0000 0.58244  0.27604  0.42876  Biso   1.000  O
  O36      1.0000 0.70499  0.27604  0.42876  Biso   1.000  O
  O37      1.0000 0.70499  0.44899  0.42876  Biso   1.000  O
  O38      1.0000 0.58244  0.57154  0.42876  Biso   1.000  O
  O39      1.0000 0.40949  0.27604  0.60171  Biso   1.000  O
  O40      1.0000 0.40949  0.27604  0.72426  Biso   1.000  O
  O41      1.0000 0.98451  0.00568  0.86290  Biso   1.000  O
  O42      1.0000 0.86196  0.00568  0.98545  Biso   1.000  O
  O43      1.0000 0.15746  0.71018  0.15840  Biso   1.000  O
  O44      1.0000 0.15746  0.83273  0.15840  Biso   1.000  O
  O45      1.0000 0.15746  0.00568  0.98545  Biso   1.000  O
  O46      1.0000 0.15746  0.00568  0.86290  Biso   1.000  O
  O47      1.0000 0.98451  0.71018  0.15840  Biso   1.000  O
  O48      1.0000 0.86196  0.83273  0.15840  Biso   1.000  O
  O49      1.0000 0.86196  0.00568  0.15840  Biso   1.000  O
  O50      1.0000 0.98451  0.00568  0.15840  Biso   1.000  O
  O51      1.0000 0.15746  0.71018  0.98545  Biso   1.000  O
