data_image0
_cell_length_a       18.0449
_cell_length_b       18.0449
_cell_length_c       18.0449
_cell_angle_alpha    60
_cell_angle_beta     60
_cell_angle_gamma    60

_symmetry_space_group_name_H-M    "P 1"
_symmetry_int_tables_number       1

loop_
  _symmetry_equiv_pos_as_xyz
  'x, y, z'

loop_
  _atom_site_label
  _atom_site_occupancy
  _atom_site_fract_x
  _atom_site_fract_y
  _atom_site_fract_z
  _atom_site_thermal_displace_type
  _atom_site_B_iso_or_equiv
  _atom_site_type_symbol
  Zn1      1.0000 0.38137  0.20621  0.20621  Biso   1.000  Zn
  Zn2      1.0000 0.20621  0.38137  0.20621  Biso   1.000  Zn
  Zn3      1.0000 0.20621  0.20621  0.38137  Biso   1.000  Zn
  Zn4      1.0000 0.20621  0.20621  0.20621  Biso   1.000  Zn
  Zn5      1.0000 0.79379  0.61863  0.79379  Biso   1.000  Zn
  Zn6      1.0000 0.61863  0.79379  0.79379  Biso   1.000  Zn
  Zn7      1.0000 0.79379  0.79379  0.61863  Biso   1.000  Zn
  Zn8      1.0000 0.79379  0.79379  0.79379  Biso   1.000  Zn
  C1       1.0000 0.53160  0.41760  0.02540  Biso   1.000  C
  C2       1.0000 0.41760  0.53160  0.02540  Biso   1.000  C
  C3       1.0000 0.02540  0.02540  0.53160  Biso   1.000  C
  C4       1.0000 0.02540  0.02540  0.41760  Biso   1.000  C
  C5       1.0000 0.53160  0.02540  0.02540  Biso   1.000  C
  C6       1.0000 0.41760  0.02540  0.02540  Biso   1.000  C
  C7       1.0000 0.02540  0.53160  0.41760  Biso   1.000  C
  C8       1.0000 0.02540  0.41760  0.53160  Biso   1.000  C
  C9       1.0000 0.53160  0.02540  0.41760  Biso   1.000  C
  C10      1.0000 0.41760  0.02540  0.53160  Biso   1.000  C
  C11      1.0000 0.02540  0.41760  0.02540  Biso   1.000  C
  C12      1.0000 0.02540  0.53160  0.02540  Biso   1.000  C
  C13      1.0000 0.58240  0.46840  0.97460  Biso   1.000  C
  C14      1.0000 0.46840  0.58240  0.97460  Biso   1.000  C
  C15      1.0000 0.97460  0.97460  0.46840  Biso   1.000  C
  C16      1.0000 0.97460  0.97460  0.58240  Biso   1.000  C
  C17      1.0000 0.97460  0.46840  0.97460  Biso   1.000  C
  C18      1.0000 0.97460  0.58240  0.97460  Biso   1.000  C
  C19      1.0000 0.46840  0.97460  0.58240  Biso   1.000  C
  C20      1.0000 0.58240  0.97460  0.46840  Biso   1.000  C
  C21      1.0000 0.97460  0.46840  0.58240  Biso   1.000  C
  C22      1.0000 0.97460  0.58240  0.46840  Biso   1.000  C
  C23      1.0000 0.58240  0.97460  0.97460  Biso   1.000  C
  C24      1.0000 0.46840  0.97460  0.97460  Biso   1.000  C
  C25      1.0000 0.44560  0.44560  0.05440  Biso   1.000  C
  C26      1.0000 0.38970  0.38970  0.11030  Biso   1.000  C
  C27      1.0000 0.05440  0.05440  0.44560  Biso   1.000  C
  C28      1.0000 0.11030  0.11030  0.38970  Biso   1.000  C
  C29      1.0000 0.44560  0.05440  0.05440  Biso   1.000  C
  C30      1.0000 0.38970  0.11030  0.11030  Biso   1.000  C
  C31      1.0000 0.05440  0.44560  0.44560  Biso   1.000  C
  C32      1.0000 0.11030  0.38970  0.38970  Biso   1.000  C
  C33      1.0000 0.44560  0.05440  0.44560  Biso   1.000  C
  C34      1.0000 0.38970  0.11030  0.38970  Biso   1.000  C
  C35      1.0000 0.05440  0.44560  0.05440  Biso   1.000  C
  C36      1.0000 0.11030  0.38970  0.11030  Biso   1.000  C
  C37      1.0000 0.55440  0.55440  0.94560  Biso   1.000  C
  C38      1.0000 0.61030  0.61030  0.88970  Biso   1.000  C
  C39      1.0000 0.94560  0.94560  0.55440  Biso   1.000  C
  C40      1.0000 0.88970  0.88970  0.61030  Biso   1.000  C
  C41      1.0000 0.94560  0.55440  0.94560  Biso   1.000  C
  C42      1.0000 0.88970  0.61030  0.88970  Biso   1.000  C
  C43      1.0000 0.55440  0.94560  0.55440  Biso   1.000  C
  C44      1.0000 0.61030  0.88970  0.61030  Biso   1.000  C
  C45      1.0000 0.94560  0.55440  0.55440  Biso   1.000  C
  C46      1.0000 0.88970  0.61030  0.61030  Biso   1.000  C
  C47      1.0000 0.55440  0.94560  0.94560  Biso   1.000  C
  C48      1.0000 0.61030  0.88970  0.88970  Biso   1.000  C
  O1       1.0000 0.25000  0.25000  0.25000  Biso   1.000  O
  O2       1.0000 0.75000  0.75000  0.75000  Biso   1.000  O
  O3       1.0000 0.42550  0.30590  0.13430  Biso   1.000  O
  O4       1.0000 0.30590  0.42550  0.13430  Biso   1.000  O
  O5       1.0000 0.13430  0.13430  0.42550  Biso   1.000  O
  O6       1.0000 0.13430  0.13430  0.30590  Biso   1.000  O
  O7       1.0000 0.42550  0.13430  0.13430  Biso   1.000  O
  O8       1.0000 0.30590  0.13430  0.13430  Biso   1.000  O
  O9       1.0000 0.13430  0.42550  0.30590  Biso   1.000  O
  O10      1.0000 0.13430  0.30590  0.42550  Biso   1.000  O
  O11      1.0000 0.42550  0.13430  0.30590  Biso   1.000  O
  O12      1.0000 0.30590  0.13430  0.42550  Biso   1.000  O
  O13      1.0000 0.13430  0.30590  0.13430  Biso   1.000  O
  O14      1.0000 0.13430  0.42550  0.13430  Biso   1.000  O
  O15      1.0000 0.69410  0.57450  0.86570  Biso   1.000  O
  O16      1.0000 0.57450  0.69410  0.86570  Biso   1.000  O
  O17      1.0000 0.86570  0.86570  0.57450  Biso   1.000  O
  O18      1.0000 0.86570  0.86570  0.69410  Biso   1.000  O
  O19      1.0000 0.86570  0.57450  0.86570  Biso   1.000  O
  O20      1.0000 0.86570  0.69410  0.86570  Biso   1.000  O
  O21      1.0000 0.57450  0.86570  0.69410  Biso   1.000  O
  O22      1.0000 0.69410  0.86570  0.57450  Biso   1.000  O
  O23      1.0000 0.86570  0.57450  0.69410  Biso   1.000  O
  O24      1.0000 0.86570  0.69410  0.57450  Biso   1.000  O
  O25      1.0000 0.69410  0.86570  0.86570  Biso   1.000  O
  O26      1.0000 0.57450  0.86570  0.86570  Biso   1.000  O
  H1       1.0000 0.56398  0.34055  0.04774  Biso   1.000  H
  H2       1.0000 0.34055  0.56398  0.04774  Biso   1.000  H
  H3       1.0000 0.04774  0.04774  0.56398  Biso   1.000  H
  H4       1.0000 0.04774  0.04774  0.34055  Biso   1.000  H
  H5       1.0000 0.34055  0.04774  0.04774  Biso   1.000  H
  H6       1.0000 0.04774  0.56398  0.34055  Biso   1.000  H
  H7       1.0000 0.04774  0.34055  0.56398  Biso   1.000  H
  H8       1.0000 0.56398  0.04774  0.34055  Biso   1.000  H
  H9       1.0000 0.34055  0.04774  0.56398  Biso   1.000  H
  H10      1.0000 0.04774  0.34055  0.04774  Biso   1.000  H
  H11      1.0000 0.04774  0.56398  0.04774  Biso   1.000  H
  H12      1.0000 0.65945  0.43602  0.95226  Biso   1.000  H
  H13      1.0000 0.43602  0.65945  0.95226  Biso   1.000  H
  H14      1.0000 0.95226  0.95226  0.43602  Biso   1.000  H
  H15      1.0000 0.95226  0.95226  0.65945  Biso   1.000  H
  H16      1.0000 0.95226  0.43602  0.95226  Biso   1.000  H
  H17      1.0000 0.95226  0.65945  0.95226  Biso   1.000  H
  H18      1.0000 0.43602  0.95226  0.65945  Biso   1.000  H
  H19      1.0000 0.65945  0.95226  0.43602  Biso   1.000  H
  H20      1.0000 0.95226  0.65945  0.43602  Biso   1.000  H
  H21      1.0000 0.65945  0.95226  0.95226  Biso   1.000  H
  H22      1.0000 0.43602  0.95226  0.95226  Biso   1.000  H
  H23      1.0000 0.95226  0.43602  0.65945  Biso   1.000  H
  H24      1.0000 0.56398  0.04774  0.04774  Biso   1.000  H
  Zn9      1.0000 0.01883  0.95986  0.00000  Biso   1.000  Zn
  Zn10     1.0000 0.01883  0.13610  0.00000  Biso   1.000  Zn
  Zn11     1.0000 0.84259  0.13610  0.00000  Biso   1.000  Zn
  Zn12     1.0000 0.01883  0.13610  0.82376  Biso   1.000  Zn
  Zn13     1.0000 0.45273  0.54064  0.40455  Biso   1.000  Zn
  Zn14     1.0000 0.45273  0.71688  0.40455  Biso   1.000  Zn
  Zn15     1.0000 0.62897  0.54064  0.40455  Biso   1.000  Zn
  Zn16     1.0000 0.45273  0.54064  0.58078  Biso   1.000  Zn
  H25      1.0000 0.87929  0.77170  0.16385  Biso   1.000  H
  H26      1.0000 0.18268  0.29995  0.86046  Biso   1.000  H
  H27      1.0000 0.65444  0.99656  0.16385  Biso   1.000  H
  H28      1.0000 0.18268  0.29995  0.63561  Biso   1.000  H
  H29      1.0000 0.65444  0.29995  0.86046  Biso   1.000  H
  H30      1.0000 0.18268  0.99656  0.16385  Biso   1.000  H
  H31      1.0000 0.87929  0.29995  0.63561  Biso   1.000  H
  H32      1.0000 0.18268  0.77170  0.16385  Biso   1.000  H
  H33      1.0000 0.18268  0.99656  0.63561  Biso   1.000  H
  H34      1.0000 0.87929  0.29995  0.16385  Biso   1.000  H
  H35      1.0000 0.18268  0.77170  0.86046  Biso   1.000  H
  H36      1.0000 0.65444  0.29995  0.16385  Biso   1.000  H
  H37      1.0000 0.59227  0.37679  0.24069  Biso   1.000  H
  H38      1.0000 0.28888  0.90503  0.54408  Biso   1.000  H
  H39      1.0000 0.81713  0.37679  0.24069  Biso   1.000  H
  H40      1.0000 0.28888  0.68018  0.76894  Biso   1.000  H
  H41      1.0000 0.81713  0.37679  0.54408  Biso   1.000  H
  H42      1.0000 0.28888  0.90503  0.24069  Biso   1.000  H
  H43      1.0000 0.59227  0.37679  0.76894  Biso   1.000  H
  H44      1.0000 0.28888  0.68018  0.24069  Biso   1.000  H
  H45      1.0000 0.28888  0.37679  0.76894  Biso   1.000  H
  H46      1.0000 0.59227  0.90503  0.24069  Biso   1.000  H
  H47      1.0000 0.28888  0.37679  0.54408  Biso   1.000  H
  H48      1.0000 0.81712  0.68018  0.24069  Biso   1.000  H
  C49      1.0000 0.81515  0.79864  0.18245  Biso   1.000  C
  C50      1.0000 0.20128  0.31855  0.79632  Biso   1.000  C
  C51      1.0000 0.68138  0.93242  0.18245  Biso   1.000  C
  C52      1.0000 0.20128  0.31855  0.66255  Biso   1.000  C
  C53      1.0000 0.68138  0.31855  0.79632  Biso   1.000  C
  C54      1.0000 0.20128  0.93242  0.18245  Biso   1.000  C
  C55      1.0000 0.81515  0.31855  0.66255  Biso   1.000  C
  C56      1.0000 0.20128  0.79864  0.18245  Biso   1.000  C
  C57      1.0000 0.20128  0.93242  0.66255  Biso   1.000  C
  C58      1.0000 0.81515  0.31855  0.18245  Biso   1.000  C
  C59      1.0000 0.20128  0.79864  0.79632  Biso   1.000  C
  C60      1.0000 0.68138  0.31855  0.18245  Biso   1.000  C
  C61      1.0000 0.65641  0.35819  0.22210  Biso   1.000  C
  C62      1.0000 0.27028  0.87809  0.60822  Biso   1.000  C
  C63      1.0000 0.79019  0.35819  0.22210  Biso   1.000  C
  C64      1.0000 0.27028  0.74432  0.74200  Biso   1.000  C
  C65      1.0000 0.79019  0.35819  0.60822  Biso   1.000  C
  C66      1.0000 0.27028  0.87809  0.22210  Biso   1.000  C
  C67      1.0000 0.65641  0.35819  0.74200  Biso   1.000  C
  C68      1.0000 0.27028  0.74432  0.22210  Biso   1.000  C
  C69      1.0000 0.27028  0.35819  0.74200  Biso   1.000  C
  C70      1.0000 0.65641  0.87809  0.22210  Biso   1.000  C
  C71      1.0000 0.27028  0.35819  0.60822  Biso   1.000  C
  C72      1.0000 0.79019  0.74432  0.22210  Biso   1.000  C
  C73      1.0000 0.83428  0.95155  0.09644  Biso   1.000  C
  C74      1.0000 0.77562  0.89289  0.15509  Biso   1.000  C
  C75      1.0000 0.11526  0.23253  0.81545  Biso   1.000  C
  C76      1.0000 0.17392  0.29119  0.75679  Biso   1.000  C
  C77      1.0000 0.83428  0.23253  0.81545  Biso   1.000  C
  C78      1.0000 0.77562  0.29119  0.75679  Biso   1.000  C
  C79      1.0000 0.11526  0.95155  0.09644  Biso   1.000  C
  C80      1.0000 0.17392  0.89289  0.15509  Biso   1.000  C
  C81      1.0000 0.11526  0.95155  0.81545  Biso   1.000  C
  C82      1.0000 0.17392  0.89289  0.75679  Biso   1.000  C
  C83      1.0000 0.83428  0.23253  0.09644  Biso   1.000  C
  C84      1.0000 0.77562  0.29119  0.15509  Biso   1.000  C
  C85      1.0000 0.63728  0.44421  0.30811  Biso   1.000  C
  C86      1.0000 0.69594  0.38555  0.24945  Biso   1.000  C
  C87      1.0000 0.35630  0.72519  0.58910  Biso   1.000  C
  C88      1.0000 0.29764  0.78385  0.64775  Biso   1.000  C
  C89      1.0000 0.63728  0.44421  0.58910  Biso   1.000  C
  C90      1.0000 0.69594  0.38555  0.64775  Biso   1.000  C
  C91      1.0000 0.35630  0.72519  0.30811  Biso   1.000  C
  C92      1.0000 0.29764  0.78385  0.24945  Biso   1.000  C
  C93      1.0000 0.35630  0.44421  0.58910  Biso   1.000  C
  C94      1.0000 0.29764  0.38555  0.64775  Biso   1.000  C
  C95      1.0000 0.63728  0.72519  0.30811  Biso   1.000  C
  C96      1.0000 0.69594  0.78385  0.24945  Biso   1.000  C
  O27      1.0000 0.97477  0.09204  0.95594  Biso   1.000  O
  O28      1.0000 0.49679  0.58470  0.44860  Biso   1.000  O
  O29      1.0000 0.91906  0.91177  0.07393  Biso   1.000  O
  O30      1.0000 0.09276  0.21003  0.90024  Biso   1.000  O
  O31      1.0000 0.79450  0.03633  0.07393  Biso   1.000  O
  O32      1.0000 0.09276  0.21003  0.77567  Biso   1.000  O
  O33      1.0000 0.79450  0.21003  0.90024  Biso   1.000  O
  O34      1.0000 0.09276  0.03633  0.07393  Biso   1.000  O
  O35      1.0000 0.91906  0.21003  0.77567  Biso   1.000  O
  O36      1.0000 0.09276  0.91177  0.07393  Biso   1.000  O
  O37      1.0000 0.09276  0.03633  0.77567  Biso   1.000  O
  O38      1.0000 0.91906  0.21003  0.07393  Biso   1.000  O
  O39      1.0000 0.09276  0.91177  0.90024  Biso   1.000  O
  O40      1.0000 0.79450  0.21003  0.07393  Biso   1.000  O
  O41      1.0000 0.55250  0.46671  0.33062  Biso   1.000  O
  O42      1.0000 0.37880  0.76497  0.50431  Biso   1.000  O
  O43      1.0000 0.67706  0.46671  0.33062  Biso   1.000  O
  O44      1.0000 0.37880  0.64040  0.62887  Biso   1.000  O
  O45      1.0000 0.67706  0.46671  0.50431  Biso   1.000  O
  O46      1.0000 0.37880  0.76497  0.33062  Biso   1.000  O
  O47      1.0000 0.55250  0.46671  0.62887  Biso   1.000  O
  O48      1.0000 0.37880  0.64040  0.33062  Biso   1.000  O
  O49      1.0000 0.37880  0.46671  0.62887  Biso   1.000  O
  O50      1.0000 0.55250  0.76497  0.33062  Biso   1.000  O
  O51      1.0000 0.37880  0.46671  0.50431  Biso   1.000  O
