data_image0
_cell_length_a       18.0449
_cell_length_b       18.0449
_cell_length_c       18.0449
_cell_angle_alpha    60
_cell_angle_beta     60
_cell_angle_gamma    60

_symmetry_space_group_name_H-M    "P 1"
_symmetry_int_tables_number       1

loop_
  _symmetry_equiv_pos_as_xyz
  'x, y, z'

loop_
  _atom_site_label
  _atom_site_occupancy
  _atom_site_fract_x
  _atom_site_fract_y
  _atom_site_fract_z
  _atom_site_thermal_displace_type
  _atom_site_B_iso_or_equiv
  _atom_site_type_symbol
  Zn1      1.0000 0.38137  0.20621  0.20621  Biso   1.000  Zn
  Zn2      1.0000 0.20621  0.38137  0.20621  Biso   1.000  Zn
  Zn3      1.0000 0.20621  0.20621  0.38137  Biso   1.000  Zn
  Zn4      1.0000 0.20621  0.20621  0.20621  Biso   1.000  Zn
  Zn5      1.0000 0.79379  0.61863  0.79379  Biso   1.000  Zn
  Zn6      1.0000 0.61863  0.79379  0.79379  Biso   1.000  Zn
  Zn7      1.0000 0.79379  0.79379  0.61863  Biso   1.000  Zn
  Zn8      1.0000 0.79379  0.79379  0.79379  Biso   1.000  Zn
  C1       1.0000 0.53160  0.41760  0.02540  Biso   1.000  C
  C2       1.0000 0.41760  0.53160  0.02540  Biso   1.000  C
  C3       1.0000 0.02540  0.02540  0.53160  Biso   1.000  C
  C4       1.0000 0.02540  0.02540  0.41760  Biso   1.000  C
  C5       1.0000 0.53160  0.02540  0.02540  Biso   1.000  C
  C6       1.0000 0.41760  0.02540  0.02540  Biso   1.000  C
  C7       1.0000 0.02540  0.53160  0.41760  Biso   1.000  C
  C8       1.0000 0.02540  0.41760  0.53160  Biso   1.000  C
  C9       1.0000 0.53160  0.02540  0.41760  Biso   1.000  C
  C10      1.0000 0.41760  0.02540  0.53160  Biso   1.000  C
  C11      1.0000 0.02540  0.41760  0.02540  Biso   1.000  C
  C12      1.0000 0.02540  0.53160  0.02540  Biso   1.000  C
  C13      1.0000 0.58240  0.46840  0.97460  Biso   1.000  C
  C14      1.0000 0.46840  0.58240  0.97460  Biso   1.000  C
  C15      1.0000 0.97460  0.97460  0.46840  Biso   1.000  C
  C16      1.0000 0.97460  0.97460  0.58240  Biso   1.000  C
  C17      1.0000 0.97460  0.46840  0.97460  Biso   1.000  C
  C18      1.0000 0.97460  0.58240  0.97460  Biso   1.000  C
  C19      1.0000 0.46840  0.97460  0.58240  Biso   1.000  C
  C20      1.0000 0.58240  0.97460  0.46840  Biso   1.000  C
  C21      1.0000 0.97460  0.46840  0.58240  Biso   1.000  C
  C22      1.0000 0.97460  0.58240  0.46840  Biso   1.000  C
  C23      1.0000 0.58240  0.97460  0.97460  Biso   1.000  C
  C24      1.0000 0.46840  0.97460  0.97460  Biso   1.000  C
  C25      1.0000 0.44560  0.44560  0.05440  Biso   1.000  C
  C26      1.0000 0.38970  0.38970  0.11030  Biso   1.000  C
  C27      1.0000 0.05440  0.05440  0.44560  Biso   1.000  C
  C28      1.0000 0.11030  0.11030  0.38970  Biso   1.000  C
  C29      1.0000 0.44560  0.05440  0.05440  Biso   1.000  C
  C30      1.0000 0.38970  0.11030  0.11030  Biso   1.000  C
  C31      1.0000 0.05440  0.44560  0.44560  Biso   1.000  C
  C32      1.0000 0.11030  0.38970  0.38970  Biso   1.000  C
  C33      1.0000 0.44560  0.05440  0.44560  Biso   1.000  C
  C34      1.0000 0.38970  0.11030  0.38970  Biso   1.000  C
  C35      1.0000 0.05440  0.44560  0.05440  Biso   1.000  C
  C36      1.0000 0.11030  0.38970  0.11030  Biso   1.000  C
  C37      1.0000 0.55440  0.55440  0.94560  Biso   1.000  C
  C38      1.0000 0.61030  0.61030  0.88970  Biso   1.000  C
  C39      1.0000 0.94560  0.94560  0.55440  Biso   1.000  C
  C40      1.0000 0.88970  0.88970  0.61030  Biso   1.000  C
  C41      1.0000 0.94560  0.55440  0.94560  Biso   1.000  C
  C42      1.0000 0.88970  0.61030  0.88970  Biso   1.000  C
  C43      1.0000 0.55440  0.94560  0.55440  Biso   1.000  C
  C44      1.0000 0.61030  0.88970  0.61030  Biso   1.000  C
  C45      1.0000 0.94560  0.55440  0.55440  Biso   1.000  C
  C46      1.0000 0.88970  0.61030  0.61030  Biso   1.000  C
  C47      1.0000 0.55440  0.94560  0.94560  Biso   1.000  C
  C48      1.0000 0.61030  0.88970  0.88970  Biso   1.000  C
  O1       1.0000 0.25000  0.25000  0.25000  Biso   1.000  O
  O2       1.0000 0.75000  0.75000  0.75000  Biso   1.000  O
  O3       1.0000 0.42550  0.30590  0.13430  Biso   1.000  O
  O4       1.0000 0.30590  0.42550  0.13430  Biso   1.000  O
  O5       1.0000 0.13430  0.13430  0.42550  Biso   1.000  O
  O6       1.0000 0.13430  0.13430  0.30590  Biso   1.000  O
  O7       1.0000 0.42550  0.13430  0.13430  Biso   1.000  O
  O8       1.0000 0.30590  0.13430  0.13430  Biso   1.000  O
  O9       1.0000 0.13430  0.42550  0.30590  Biso   1.000  O
  O10      1.0000 0.13430  0.30590  0.42550  Biso   1.000  O
  O11      1.0000 0.42550  0.13430  0.30590  Biso   1.000  O
  O12      1.0000 0.30590  0.13430  0.42550  Biso   1.000  O
  O13      1.0000 0.13430  0.30590  0.13430  Biso   1.000  O
  O14      1.0000 0.13430  0.42550  0.13430  Biso   1.000  O
  O15      1.0000 0.69410  0.57450  0.86570  Biso   1.000  O
  O16      1.0000 0.57450  0.69410  0.86570  Biso   1.000  O
  O17      1.0000 0.86570  0.86570  0.57450  Biso   1.000  O
  O18      1.0000 0.86570  0.86570  0.69410  Biso   1.000  O
  O19      1.0000 0.86570  0.57450  0.86570  Biso   1.000  O
  O20      1.0000 0.86570  0.69410  0.86570  Biso   1.000  O
  O21      1.0000 0.57450  0.86570  0.69410  Biso   1.000  O
  O22      1.0000 0.69410  0.86570  0.57450  Biso   1.000  O
  O23      1.0000 0.86570  0.57450  0.69410  Biso   1.000  O
  O24      1.0000 0.86570  0.69410  0.57450  Biso   1.000  O
  O25      1.0000 0.69410  0.86570  0.86570  Biso   1.000  O
  O26      1.0000 0.57450  0.86570  0.86570  Biso   1.000  O
  H1       1.0000 0.56398  0.34055  0.04774  Biso   1.000  H
  H2       1.0000 0.34055  0.56398  0.04774  Biso   1.000  H
  H3       1.0000 0.04774  0.04774  0.56398  Biso   1.000  H
  H4       1.0000 0.04774  0.04774  0.34055  Biso   1.000  H
  H5       1.0000 0.34055  0.04774  0.04774  Biso   1.000  H
  H6       1.0000 0.04774  0.56398  0.34055  Biso   1.000  H
  H7       1.0000 0.04774  0.34055  0.56398  Biso   1.000  H
  H8       1.0000 0.56398  0.04774  0.34055  Biso   1.000  H
  H9       1.0000 0.34055  0.04774  0.56398  Biso   1.000  H
  H10      1.0000 0.04774  0.34055  0.04774  Biso   1.000  H
  H11      1.0000 0.04774  0.56398  0.04774  Biso   1.000  H
  H12      1.0000 0.65945  0.43602  0.95226  Biso   1.000  H
  H13      1.0000 0.43602  0.65945  0.95226  Biso   1.000  H
  H14      1.0000 0.95226  0.95226  0.43602  Biso   1.000  H
  H15      1.0000 0.95226  0.95226  0.65945  Biso   1.000  H
  H16      1.0000 0.95226  0.43602  0.95226  Biso   1.000  H
  H17      1.0000 0.95226  0.65945  0.95226  Biso   1.000  H
  H18      1.0000 0.43602  0.95226  0.65945  Biso   1.000  H
  H19      1.0000 0.65945  0.95226  0.43602  Biso   1.000  H
  H20      1.0000 0.95226  0.65945  0.43602  Biso   1.000  H
  H21      1.0000 0.65945  0.95226  0.95226  Biso   1.000  H
  H22      1.0000 0.43602  0.95226  0.95226  Biso   1.000  H
  H23      1.0000 0.95226  0.43602  0.65945  Biso   1.000  H
  H24      1.0000 0.56398  0.04774  0.04774  Biso   1.000  H
  Zn9      1.0000 0.51839  0.44017  0.40723  Biso   1.000  Zn
  Zn10     1.0000 0.51844  0.61447  0.40718  Biso   1.000  Zn
  Zn11     1.0000 0.69274  0.44017  0.40723  Biso   1.000  Zn
  Zn12     1.0000 0.51844  0.44012  0.58153  Biso   1.000  Zn
  Zn13     1.0000 0.10854  0.02438  0.99145  Biso   1.000  Zn
  Zn14     1.0000 0.10849  0.85008  0.99150  Biso   1.000  Zn
  Zn15     1.0000 0.93419  0.02438  0.99145  Biso   1.000  Zn
  Zn16     1.0000 0.10849  0.02443  0.81715  Biso   1.000  Zn
  C49      1.0000 0.33691  0.64224  0.22671  Biso   1.000  C
  C50      1.0000 0.72073  0.25943  0.22469  Biso   1.000  C
  C51      1.0000 0.33630  0.26044  0.60931  Biso   1.000  C
  C52      1.0000 0.33793  0.76858  0.22570  Biso   1.000  C
  C53      1.0000 0.33591  0.76960  0.60951  Biso   1.000  C
  C54      1.0000 0.72054  0.76838  0.22509  Biso   1.000  C
  C55      1.0000 0.85268  0.25965  0.60930  Biso   1.000  C
  C56      1.0000 0.85370  0.25762  0.22650  Biso   1.000  C
  C57      1.0000 0.85248  0.64225  0.22750  Biso   1.000  C
  C58      1.0000 0.72634  0.25863  0.73565  Biso   1.000  C
  C59      1.0000 0.34352  0.64245  0.73667  Biso   1.000  C
  C60      1.0000 0.34454  0.25802  0.73546  Biso   1.000  C
  C61      1.0000 0.29002  0.82231  0.17197  Biso   1.000  C
  C62      1.0000 0.90620  0.20512  0.17399  Biso   1.000  C
  C63      1.0000 0.29063  0.20411  0.78937  Biso   1.000  C
  C64      1.0000 0.28900  0.69597  0.17298  Biso   1.000  C
  C65      1.0000 0.29102  0.69495  0.78917  Biso   1.000  C
  C66      1.0000 0.90639  0.69616  0.17359  Biso   1.000  C
  C67      1.0000 0.77425  0.20490  0.78938  Biso   1.000  C
  C68      1.0000 0.77323  0.20693  0.17218  Biso   1.000  C
  C69      1.0000 0.77445  0.82230  0.17118  Biso   1.000  C
  C70      1.0000 0.90059  0.20591  0.66303  Biso   1.000  C
  C71      1.0000 0.28341  0.82210  0.66202  Biso   1.000  C
  C72      1.0000 0.28239  0.20653  0.66322  Biso   1.000  C
  C73      1.0000 0.36466  0.68107  0.25345  Biso   1.000  C
  C74      1.0000 0.42368  0.62205  0.31247  Biso   1.000  C
  C75      1.0000 0.75935  0.28639  0.64814  Biso   1.000  C
  C76      1.0000 0.70033  0.34541  0.58911  Biso   1.000  C
  C77      1.0000 0.26227  0.78347  0.14523  Biso   1.000  C
  C78      1.0000 0.20325  0.84249  0.08621  Biso   1.000  C
  C79      1.0000 0.86758  0.17816  0.75055  Biso   1.000  C
  C80      1.0000 0.92660  0.11913  0.80957  Biso   1.000  C
  C81      1.0000 0.36447  0.28619  0.64834  Biso   1.000  C
  C82      1.0000 0.42320  0.34493  0.58960  Biso   1.000  C
  C83      1.0000 0.75954  0.68128  0.25325  Biso   1.000  C
  C84      1.0000 0.70081  0.62254  0.31199  Biso   1.000  C
  C85      1.0000 0.26247  0.17836  0.75034  Biso   1.000  C
  C86      1.0000 0.20373  0.11962  0.80908  Biso   1.000  C
  C87      1.0000 0.86739  0.78327  0.14543  Biso   1.000  C
  C88      1.0000 0.92613  0.84201  0.08669  Biso   1.000  C
  C89      1.0000 0.75975  0.28598  0.25305  Biso   1.000  C
  C90      1.0000 0.70101  0.34473  0.31179  Biso   1.000  C
  C91      1.0000 0.36426  0.68148  0.64854  Biso   1.000  C
  C92      1.0000 0.42300  0.62274  0.58980  Biso   1.000  C
  C93      1.0000 0.86718  0.17856  0.14563  Biso   1.000  C
  C94      1.0000 0.92592  0.11982  0.08689  Biso   1.000  C
  C95      1.0000 0.26267  0.78307  0.75014  Biso   1.000  C
  C96      1.0000 0.20393  0.84181  0.80888  Biso   1.000  C
  O27      1.0000 0.44642  0.53732  0.33360  Biso   1.000  O
  O28      1.0000 0.44447  0.36814  0.50523  Biso   1.000  O
  O29      1.0000 0.61517  0.36778  0.33402  Biso   1.000  O
  O30      1.0000 0.44480  0.66293  0.33521  Biso   1.000  O
  O31      1.0000 0.61644  0.66243  0.33325  Biso   1.000  O
  O32      1.0000 0.44523  0.66329  0.50396  Biso   1.000  O
  O33      1.0000 0.74120  0.36653  0.50438  Biso   1.000  O
  O34      1.0000 0.74070  0.53817  0.33521  Biso   1.000  O
  O35      1.0000 0.74157  0.36695  0.33484  Biso   1.000  O
  O36      1.0000 0.61560  0.36814  0.62999  Biso   1.000  O
  O37      1.0000 0.44642  0.36619  0.62949  Biso   1.000  O
  O38      1.0000 0.44605  0.53690  0.63035  Biso   1.000  O
  O39      1.0000 0.18052  0.92722  0.06508  Biso   1.000  O
  O40      1.0000 0.18246  0.09640  0.89345  Biso   1.000  O
  O41      1.0000 0.01176  0.09677  0.06466  Biso   1.000  O
  O42      1.0000 0.18213  0.80162  0.06347  Biso   1.000  O
  O43      1.0000 0.01049  0.80212  0.06543  Biso   1.000  O
  O44      1.0000 0.18171  0.80125  0.89472  Biso   1.000  O
  O45      1.0000 0.88573  0.09801  0.89430  Biso   1.000  O
  O46      1.0000 0.88623  0.92638  0.06347  Biso   1.000  O
  O47      1.0000 0.88536  0.09759  0.06384  Biso   1.000  O
  O48      1.0000 0.01133  0.09640  0.76869  Biso   1.000  O
  O49      1.0000 0.18051  0.09835  0.76919  Biso   1.000  O
  O50      1.0000 0.18088  0.92764  0.76833  Biso   1.000  O
  O51      1.0000 0.56200  0.48373  0.45079  Biso   1.000  O
  O52      1.0000 0.06493  0.98081  0.94789  Biso   1.000  O
  H25      1.0000 0.64368  0.28251  0.24628  Biso   1.000  H
  H26      1.0000 0.88606  0.27922  0.24958  Biso   1.000  H
  H27      1.0000 0.98325  0.18203  0.15240  Biso   1.000  H
  H28      1.0000 0.74087  0.18533  0.14910  Biso   1.000  H
  H29      1.0000 0.88485  0.56521  0.25084  Biso   1.000  H
  H30      1.0000 0.98343  0.66379  0.15226  Biso   1.000  H
  H31      1.0000 0.35764  0.28377  0.53228  Biso   1.000  H
  H32      1.0000 0.25906  0.18519  0.63086  Biso   1.000  H
  H33      1.0000 0.36068  0.80095  0.24762  Biso   1.000  H
  H34      1.0000 0.35751  0.80196  0.53247  Biso   1.000  H
  H35      1.0000 0.97764  0.18400  0.63065  Biso   1.000  H
  H36      1.0000 0.26032  0.89915  0.62965  Biso   1.000  H
  H37      1.0000 0.64350  0.80075  0.24642  Biso   1.000  H
  H38      1.0000 0.74208  0.89933  0.14784  Biso   1.000  H
  H39      1.0000 0.36787  0.27935  0.76783  Biso   1.000  H
  H40      1.0000 0.26929  0.18077  0.86641  Biso   1.000  H
  H41      1.0000 0.74187  0.18215  0.86643  Biso   1.000  H
  H42      1.0000 0.36661  0.56540  0.76903  Biso   1.000  H
  H43      1.0000 0.26943  0.66258  0.86621  Biso   1.000  H
  H44      1.0000 0.64929  0.28055  0.76803  Biso   1.000  H
  H45      1.0000 0.26625  0.66359  0.15106  Biso   1.000  H
  H46      1.0000 0.35883  0.56519  0.24946  Biso   1.000  H
  H47      1.0000 0.26810  0.89935  0.14922  Biso   1.000  H
