data_image0
_cell_length_a       18.0703
_cell_length_b       18.0703
_cell_length_c       18.0703
_cell_angle_alpha    60
_cell_angle_beta     60
_cell_angle_gamma    60

_symmetry_space_group_name_H-M    "P 1"
_symmetry_int_tables_number       1

loop_
  _symmetry_equiv_pos_as_xyz
  'x, y, z'

loop_
  _atom_site_label
  _atom_site_occupancy
  _atom_site_fract_x
  _atom_site_fract_y
  _atom_site_fract_z
  _atom_site_thermal_displace_type
  _atom_site_B_iso_or_equiv
  _atom_site_type_symbol
  Zn1      1.0000 0.29350  0.29350  0.29350  Biso   1.000  Zn
  Zn2      1.0000 0.29350  0.29350  0.11950  Biso   1.000  Zn
  Zn3      1.0000 0.29350  0.11950  0.29350  Biso   1.000  Zn
  Zn4      1.0000 0.11950  0.29350  0.29350  Biso   1.000  Zn
  Zn5      1.0000 0.70650  0.70650  0.70650  Biso   1.000  Zn
  Zn6      1.0000 0.70650  0.70650  0.88050  Biso   1.000  Zn
  Zn7      1.0000 0.88050  0.70650  0.70650  Biso   1.000  Zn
  Zn8      1.0000 0.70650  0.88050  0.70650  Biso   1.000  Zn
  C1       1.0000 0.47340  0.47340  0.96080  Biso   1.000  C
  C2       1.0000 0.47340  0.47340  0.09240  Biso   1.000  C
  C3       1.0000 0.96080  0.09240  0.47340  Biso   1.000  C
  C4       1.0000 0.09240  0.96080  0.47340  Biso   1.000  C
  C5       1.0000 0.47340  0.96080  0.09240  Biso   1.000  C
  C6       1.0000 0.47340  0.09240  0.96080  Biso   1.000  C
  C7       1.0000 0.96080  0.47340  0.47340  Biso   1.000  C
  C8       1.0000 0.09240  0.47340  0.47340  Biso   1.000  C
  C9       1.0000 0.47340  0.09240  0.47340  Biso   1.000  C
  C10      1.0000 0.47340  0.96080  0.47340  Biso   1.000  C
  C11      1.0000 0.96080  0.47340  0.09240  Biso   1.000  C
  C12      1.0000 0.09240  0.47340  0.96080  Biso   1.000  C
  C13      1.0000 0.52660  0.52660  0.03920  Biso   1.000  C
  C14      1.0000 0.52660  0.52660  0.90760  Biso   1.000  C
  C15      1.0000 0.90760  0.03920  0.52660  Biso   1.000  C
  C16      1.0000 0.03920  0.90760  0.52660  Biso   1.000  C
  C17      1.0000 0.03920  0.52660  0.90760  Biso   1.000  C
  C18      1.0000 0.90760  0.52660  0.03920  Biso   1.000  C
  C19      1.0000 0.52660  0.03920  0.52660  Biso   1.000  C
  C20      1.0000 0.52660  0.90760  0.52660  Biso   1.000  C
  C21      1.0000 0.90760  0.52660  0.52660  Biso   1.000  C
  C22      1.0000 0.03920  0.52660  0.52660  Biso   1.000  C
  C23      1.0000 0.52660  0.03920  0.90760  Biso   1.000  C
  C24      1.0000 0.52660  0.90760  0.03920  Biso   1.000  C
  C25      1.0000 0.38820  0.38820  0.11180  Biso   1.000  C
  C26      1.0000 0.44590  0.44590  0.05410  Biso   1.000  C
  C27      1.0000 0.11180  0.11180  0.38820  Biso   1.000  C
  C28      1.0000 0.05410  0.05410  0.44590  Biso   1.000  C
  C29      1.0000 0.38820  0.11180  0.11180  Biso   1.000  C
  C30      1.0000 0.44590  0.05410  0.05410  Biso   1.000  C
  C31      1.0000 0.11180  0.38820  0.38820  Biso   1.000  C
  C32      1.0000 0.05410  0.44590  0.44590  Biso   1.000  C
  C33      1.0000 0.38820  0.11180  0.38820  Biso   1.000  C
  C34      1.0000 0.44590  0.05410  0.44590  Biso   1.000  C
  C35      1.0000 0.11180  0.38820  0.11180  Biso   1.000  C
  C36      1.0000 0.05410  0.44590  0.05410  Biso   1.000  C
  C37      1.0000 0.61180  0.61180  0.88820  Biso   1.000  C
  C38      1.0000 0.55410  0.55410  0.94590  Biso   1.000  C
  C39      1.0000 0.88820  0.88820  0.61180  Biso   1.000  C
  C40      1.0000 0.94590  0.94590  0.55410  Biso   1.000  C
  C41      1.0000 0.88820  0.61180  0.88820  Biso   1.000  C
  C42      1.0000 0.94590  0.55410  0.94590  Biso   1.000  C
  C43      1.0000 0.61180  0.88820  0.61180  Biso   1.000  C
  C44      1.0000 0.55410  0.94590  0.55410  Biso   1.000  C
  C45      1.0000 0.88820  0.61180  0.61180  Biso   1.000  C
  C46      1.0000 0.94590  0.55410  0.55410  Biso   1.000  C
  C47      1.0000 0.61180  0.88820  0.88820  Biso   1.000  C
  C48      1.0000 0.55410  0.94590  0.94590  Biso   1.000  C
  O1       1.0000 0.25000  0.25000  0.25000  Biso   1.000  O
  O2       1.0000 0.75000  0.75000  0.75000  Biso   1.000  O
  O3       1.0000 0.36569  0.36569  0.19789  Biso   1.000  O
  O4       1.0000 0.36569  0.36569  0.07073  Biso   1.000  O
  O5       1.0000 0.19789  0.07073  0.36569  Biso   1.000  O
  O6       1.0000 0.07073  0.19789  0.36569  Biso   1.000  O
  O7       1.0000 0.36569  0.19789  0.07073  Biso   1.000  O
  O8       1.0000 0.36569  0.07073  0.19789  Biso   1.000  O
  O9       1.0000 0.19789  0.36569  0.36569  Biso   1.000  O
  O10      1.0000 0.07073  0.36569  0.36569  Biso   1.000  O
  O11      1.0000 0.36569  0.07073  0.36569  Biso   1.000  O
  O12      1.0000 0.36569  0.19789  0.36569  Biso   1.000  O
  O13      1.0000 0.19789  0.36569  0.07073  Biso   1.000  O
  O14      1.0000 0.07073  0.36569  0.19789  Biso   1.000  O
  O15      1.0000 0.63431  0.63431  0.80211  Biso   1.000  O
  O16      1.0000 0.63431  0.63431  0.92927  Biso   1.000  O
  O17      1.0000 0.92927  0.80211  0.63431  Biso   1.000  O
  O18      1.0000 0.80211  0.92927  0.63431  Biso   1.000  O
  O19      1.0000 0.80211  0.63431  0.92927  Biso   1.000  O
  O20      1.0000 0.92927  0.63431  0.80211  Biso   1.000  O
  O21      1.0000 0.63431  0.80211  0.63431  Biso   1.000  O
  O22      1.0000 0.63431  0.92927  0.63431  Biso   1.000  O
  O23      1.0000 0.92927  0.63431  0.63431  Biso   1.000  O
  O24      1.0000 0.80211  0.63431  0.63431  Biso   1.000  O
  O25      1.0000 0.63431  0.80211  0.92927  Biso   1.000  O
  O26      1.0000 0.63431  0.92927  0.80211  Biso   1.000  O
  H1       1.0000 0.45110  0.45110  0.92847  Biso   1.000  H
  H2       1.0000 0.45110  0.45110  0.16934  Biso   1.000  H
  H3       1.0000 0.92847  0.16934  0.45110  Biso   1.000  H
  H4       1.0000 0.16934  0.92847  0.45110  Biso   1.000  H
  H5       1.0000 0.45110  0.92847  0.16934  Biso   1.000  H
  H6       1.0000 0.45110  0.16934  0.92847  Biso   1.000  H
  H7       1.0000 0.92847  0.45110  0.45110  Biso   1.000  H
  H8       1.0000 0.16934  0.45110  0.45110  Biso   1.000  H
  H9       1.0000 0.45110  0.16934  0.45110  Biso   1.000  H
  H10      1.0000 0.45110  0.92847  0.45110  Biso   1.000  H
  H11      1.0000 0.92847  0.45110  0.16934  Biso   1.000  H
  H12      1.0000 0.16934  0.45110  0.92847  Biso   1.000  H
  H13      1.0000 0.54890  0.54890  0.07153  Biso   1.000  H
  H14      1.0000 0.54890  0.54890  0.83066  Biso   1.000  H
  H15      1.0000 0.83066  0.07153  0.54890  Biso   1.000  H
  H16      1.0000 0.07153  0.83066  0.54890  Biso   1.000  H
  H17      1.0000 0.07153  0.54890  0.83066  Biso   1.000  H
  H18      1.0000 0.83066  0.54890  0.07153  Biso   1.000  H
  H19      1.0000 0.54890  0.07153  0.54890  Biso   1.000  H
  H20      1.0000 0.54890  0.83066  0.54890  Biso   1.000  H
  H21      1.0000 0.83066  0.54890  0.54890  Biso   1.000  H
  H22      1.0000 0.07153  0.54890  0.54890  Biso   1.000  H
  H23      1.0000 0.54890  0.07153  0.83066  Biso   1.000  H
  H24      1.0000 0.54890  0.83066  0.07153  Biso   1.000  H
  Zn9      1.0000 0.89888  0.13101  0.94887  Biso   1.000  Zn
  Zn10     1.0000 0.07839  0.95151  0.94887  Biso   1.000  Zn
  Zn11     1.0000 0.89888  0.95151  0.94887  Biso   1.000  Zn
  Zn12     1.0000 0.89888  0.95151  0.12838  Biso   1.000  Zn
  Zn13     1.0000 0.31563  0.54776  0.54513  Biso   1.000  Zn
  Zn14     1.0000 0.49514  0.36826  0.54513  Biso   1.000  Zn
  Zn15     1.0000 0.49514  0.54776  0.54513  Biso   1.000  Zn
  Zn16     1.0000 0.49514  0.54776  0.36563  Biso   1.000  Zn
  H25      1.0000 0.73407  0.31244  0.78406  Biso   1.000  H
  H26      1.0000 0.25982  0.78669  0.09708  Biso   1.000  H
  H27      1.0000 0.73407  0.09971  0.78406  Biso   1.000  H
  H28      1.0000 0.04709  0.78669  0.30981  Biso   1.000  H
  H29      1.0000 0.73407  0.78669  0.09708  Biso   1.000  H
  H30      1.0000 0.25982  0.09971  0.78406  Biso   1.000  H
  H31      1.0000 0.73407  0.78669  0.30981  Biso   1.000  H
  H32      1.0000 0.04709  0.31244  0.78406  Biso   1.000  H
  H33      1.0000 0.73407  0.09971  0.30981  Biso   1.000  H
  H34      1.0000 0.25982  0.78669  0.78406  Biso   1.000  H
  H35      1.0000 0.73407  0.31244  0.09708  Biso   1.000  H
  H36      1.0000 0.04709  0.78669  0.78406  Biso   1.000  H
  H37      1.0000 0.13420  0.71258  0.70995  Biso   1.000  H
  H38      1.0000 0.65996  0.18683  0.39693  Biso   1.000  H
  H39      1.0000 0.34694  0.71258  0.70995  Biso   1.000  H
  H40      1.0000 0.65996  0.39956  0.18420  Biso   1.000  H
  H41      1.0000 0.65996  0.71258  0.39693  Biso   1.000  H
  H42      1.0000 0.34694  0.18683  0.70995  Biso   1.000  H
  H43      1.0000 0.65996  0.71258  0.18420  Biso   1.000  H
  H44      1.0000 0.13420  0.39956  0.70995  Biso   1.000  H
  H45      1.0000 0.34694  0.71258  0.18420  Biso   1.000  H
  H46      1.0000 0.65996  0.18683  0.70995  Biso   1.000  H
  H47      1.0000 0.13420  0.71258  0.39693  Biso   1.000  H
  H48      1.0000 0.65996  0.39956  0.70995  Biso   1.000  H
  C49      1.0000 0.71907  0.28935  0.76906  Biso   1.000  C
  C50      1.0000 0.23672  0.77170  0.15016  Biso   1.000  C
  C51      1.0000 0.71907  0.15279  0.76906  Biso   1.000  C
  C52      1.0000 0.10017  0.77170  0.28671  Biso   1.000  C
  C53      1.0000 0.71907  0.77170  0.15016  Biso   1.000  C
  C54      1.0000 0.23672  0.15279  0.76906  Biso   1.000  C
  C55      1.0000 0.71907  0.77170  0.28671  Biso   1.000  C
  C56      1.0000 0.10017  0.28935  0.76906  Biso   1.000  C
  C57      1.0000 0.71907  0.15279  0.28671  Biso   1.000  C
  C58      1.0000 0.23672  0.77170  0.76906  Biso   1.000  C
  C59      1.0000 0.71907  0.28935  0.15016  Biso   1.000  C
  C60      1.0000 0.10017  0.77170  0.76906  Biso   1.000  C
  C61      1.0000 0.15730  0.72757  0.72494  Biso   1.000  C
  C62      1.0000 0.67495  0.20993  0.34385  Biso   1.000  C
  C63      1.0000 0.29385  0.72757  0.72494  Biso   1.000  C
  C64      1.0000 0.67495  0.34648  0.20729  Biso   1.000  C
  C65      1.0000 0.67495  0.72757  0.34385  Biso   1.000  C
  C66      1.0000 0.29385  0.20993  0.72494  Biso   1.000  C
  C67      1.0000 0.67495  0.72757  0.20729  Biso   1.000  C
  C68      1.0000 0.15730  0.34648  0.72494  Biso   1.000  C
  C69      1.0000 0.29385  0.72757  0.20729  Biso   1.000  C
  C70      1.0000 0.67495  0.20993  0.72494  Biso   1.000  C
  C71      1.0000 0.15730  0.72757  0.34385  Biso   1.000  C
  C72      1.0000 0.67495  0.34648  0.72494  Biso   1.000  C
  C73      1.0000 0.80660  0.13354  0.85659  Biso   1.000  C
  C74      1.0000 0.74531  0.19483  0.79530  Biso   1.000  C
  C75      1.0000 0.08092  0.85922  0.13091  Biso   1.000  C
  C76      1.0000 0.14221  0.79793  0.19220  Biso   1.000  C
  C77      1.0000 0.80660  0.85922  0.13091  Biso   1.000  C
  C78      1.0000 0.74531  0.79793  0.19220  Biso   1.000  C
  C79      1.0000 0.08092  0.13354  0.85659  Biso   1.000  C
  C80      1.0000 0.14221  0.19483  0.79530  Biso   1.000  C
  C81      1.0000 0.80660  0.13354  0.13091  Biso   1.000  C
  C82      1.0000 0.74531  0.19483  0.19220  Biso   1.000  C
  C83      1.0000 0.08092  0.85922  0.85659  Biso   1.000  C
  C84      1.0000 0.14221  0.79793  0.79530  Biso   1.000  C
  C85      1.0000 0.31310  0.64005  0.63742  Biso   1.000  C
  C86      1.0000 0.25181  0.70134  0.69870  Biso   1.000  C
  C87      1.0000 0.58743  0.36573  0.36309  Biso   1.000  C
  C88      1.0000 0.64871  0.30444  0.30181  Biso   1.000  C
  C89      1.0000 0.58743  0.64005  0.36309  Biso   1.000  C
  C90      1.0000 0.64871  0.70134  0.30181  Biso   1.000  C
  C91      1.0000 0.31310  0.36573  0.63742  Biso   1.000  C
  C92      1.0000 0.25182  0.30444  0.69870  Biso   1.000  C
  C93      1.0000 0.31310  0.64005  0.36309  Biso   1.000  C
  C94      1.0000 0.25182  0.70134  0.30181  Biso   1.000  C
  C95      1.0000 0.58743  0.36573  0.63742  Biso   1.000  C
  C96      1.0000 0.64871  0.30444  0.69870  Biso   1.000  C
  O27      1.0000 0.94376  0.99638  0.99375  Biso   1.000  O
  O28      1.0000 0.45026  0.50289  0.50025  Biso   1.000  O
  O29      1.0000 0.82584  0.17791  0.87584  Biso   1.000  O
  O30      1.0000 0.12529  0.87847  0.04805  Biso   1.000  O
  O31      1.0000 0.82584  0.05068  0.87584  Biso   1.000  O
  O32      1.0000 0.99806  0.87847  0.17528  Biso   1.000  O
  O33      1.0000 0.82584  0.87847  0.04805  Biso   1.000  O
  O34      1.0000 0.12529  0.05068  0.87584  Biso   1.000  O
  O35      1.0000 0.82584  0.87847  0.17528  Biso   1.000  O
  O36      1.0000 0.99806  0.17791  0.87584  Biso   1.000  O
  O37      1.0000 0.82584  0.05068  0.17528  Biso   1.000  O
  O38      1.0000 0.12529  0.87847  0.87584  Biso   1.000  O
  O39      1.0000 0.82584  0.17791  0.04805  Biso   1.000  O
  O40      1.0000 0.99806  0.87847  0.87584  Biso   1.000  O
  O41      1.0000 0.26873  0.62080  0.61817  Biso   1.000  O
  O42      1.0000 0.56818  0.32136  0.44596  Biso   1.000  O
  O43      1.0000 0.39597  0.62080  0.61817  Biso   1.000  O
  O44      1.0000 0.56818  0.44859  0.31872  Biso   1.000  O
  O45      1.0000 0.56818  0.62080  0.44596  Biso   1.000  O
  O46      1.0000 0.39597  0.32136  0.61817  Biso   1.000  O
  O47      1.0000 0.56818  0.62080  0.31872  Biso   1.000  O
  O48      1.0000 0.26873  0.44859  0.61817  Biso   1.000  O
  O49      1.0000 0.39597  0.62080  0.31872  Biso   1.000  O
  O50      1.0000 0.56818  0.32136  0.61817  Biso   1.000  O
  O51      1.0000 0.26873  0.62080  0.44596  Biso   1.000  O
