data_image0
_cell_length_a       18.0703
_cell_length_b       18.0703
_cell_length_c       18.0703
_cell_angle_alpha    60
_cell_angle_beta     60
_cell_angle_gamma    60

_symmetry_space_group_name_H-M    "P 1"
_symmetry_int_tables_number       1

loop_
  _symmetry_equiv_pos_as_xyz
  'x, y, z'

loop_
  _atom_site_label
  _atom_site_occupancy
  _atom_site_fract_x
  _atom_site_fract_y
  _atom_site_fract_z
  _atom_site_thermal_displace_type
  _atom_site_B_iso_or_equiv
  _atom_site_type_symbol
  C1       1.0000 0.29350  0.29350  0.29350  Biso   1.000  C
  C2       1.0000 0.29350  0.29350  0.11950  Biso   1.000  C
  C3       1.0000 0.29350  0.11950  0.29350  Biso   1.000  C
  C4       1.0000 0.11950  0.29350  0.29350  Biso   1.000  C
  C5       1.0000 0.70650  0.70650  0.70650  Biso   1.000  C
  C6       1.0000 0.70650  0.70650  0.88050  Biso   1.000  C
  C7       1.0000 0.88050  0.70650  0.70650  Biso   1.000  C
  C8       1.0000 0.70650  0.88050  0.70650  Biso   1.000  C
  C9       1.0000 0.47340  0.47340  0.96080  Biso   1.000  C
  C10      1.0000 0.47340  0.47340  0.09240  Biso   1.000  C
  C11      1.0000 0.96080  0.09240  0.47340  Biso   1.000  C
  C12      1.0000 0.09240  0.96080  0.47340  Biso   1.000  C
  C13      1.0000 0.47340  0.96080  0.09240  Biso   1.000  C
  C14      1.0000 0.47340  0.09240  0.96080  Biso   1.000  C
  C15      1.0000 0.96080  0.47340  0.47340  Biso   1.000  C
  C16      1.0000 0.09240  0.47340  0.47340  Biso   1.000  C
  C17      1.0000 0.47340  0.09240  0.47340  Biso   1.000  C
  C18      1.0000 0.47340  0.96080  0.47340  Biso   1.000  C
  C19      1.0000 0.96080  0.47340  0.09240  Biso   1.000  C
  C20      1.0000 0.09240  0.47340  0.96080  Biso   1.000  C
  C21      1.0000 0.52660  0.52660  0.03920  Biso   1.000  C
  C22      1.0000 0.52660  0.52660  0.90760  Biso   1.000  C
  C23      1.0000 0.90760  0.03920  0.52660  Biso   1.000  C
  C24      1.0000 0.03920  0.90760  0.52660  Biso   1.000  C
  C25      1.0000 0.03920  0.52660  0.90760  Biso   1.000  C
  C26      1.0000 0.90760  0.52660  0.03920  Biso   1.000  C
  C27      1.0000 0.52660  0.03920  0.52660  Biso   1.000  C
  C28      1.0000 0.52660  0.90760  0.52660  Biso   1.000  C
  C29      1.0000 0.90760  0.52660  0.52660  Biso   1.000  C
  C30      1.0000 0.03920  0.52660  0.52660  Biso   1.000  C
  C31      1.0000 0.52660  0.03920  0.90760  Biso   1.000  C
  C32      1.0000 0.52660  0.90760  0.03920  Biso   1.000  C
  C33      1.0000 0.38820  0.38820  0.11180  Biso   1.000  C
  C34      1.0000 0.44590  0.44590  0.05410  Biso   1.000  C
  C35      1.0000 0.11180  0.11180  0.38820  Biso   1.000  C
  C36      1.0000 0.05410  0.05410  0.44590  Biso   1.000  C
  C37      1.0000 0.38820  0.11180  0.11180  Biso   1.000  C
  C38      1.0000 0.44590  0.05410  0.05410  Biso   1.000  C
  C39      1.0000 0.11180  0.38820  0.38820  Biso   1.000  C
  C40      1.0000 0.05410  0.44590  0.44590  Biso   1.000  C
  C41      1.0000 0.38820  0.11180  0.38820  Biso   1.000  C
  C42      1.0000 0.44590  0.05410  0.44590  Biso   1.000  C
  C43      1.0000 0.11180  0.38820  0.11180  Biso   1.000  C
  C44      1.0000 0.05410  0.44590  0.05410  Biso   1.000  C
  C45      1.0000 0.61180  0.61180  0.88820  Biso   1.000  C
  C46      1.0000 0.55410  0.55410  0.94590  Biso   1.000  C
  C47      1.0000 0.88820  0.88820  0.61180  Biso   1.000  C
  C48      1.0000 0.94590  0.94590  0.55410  Biso   1.000  C
  C49      1.0000 0.88820  0.61180  0.88820  Biso   1.000  C
  C50      1.0000 0.94590  0.55410  0.94590  Biso   1.000  C
  C51      1.0000 0.61180  0.88820  0.61180  Biso   1.000  C
  C52      1.0000 0.55410  0.94590  0.55410  Biso   1.000  C
  C53      1.0000 0.88820  0.61180  0.61180  Biso   1.000  C
  C54      1.0000 0.94590  0.55410  0.55410  Biso   1.000  C
  C55      1.0000 0.61180  0.88820  0.88820  Biso   1.000  C
  C56      1.0000 0.55410  0.94590  0.94590  Biso   1.000  C
  C57      1.0000 0.25000  0.25000  0.25000  Biso   1.000  C
  C58      1.0000 0.75000  0.75000  0.75000  Biso   1.000  C
  C59      1.0000 0.36569  0.36569  0.19789  Biso   1.000  C
  C60      1.0000 0.36569  0.36569  0.07073  Biso   1.000  C
  C61      1.0000 0.19789  0.07073  0.36569  Biso   1.000  C
  C62      1.0000 0.07073  0.19789  0.36569  Biso   1.000  C
  C63      1.0000 0.36569  0.19789  0.07073  Biso   1.000  C
  C64      1.0000 0.36569  0.07073  0.19789  Biso   1.000  C
  C65      1.0000 0.19789  0.36569  0.36569  Biso   1.000  C
  C66      1.0000 0.07073  0.36569  0.36569  Biso   1.000  C
  C67      1.0000 0.36569  0.07073  0.36569  Biso   1.000  C
  C68      1.0000 0.36569  0.19789  0.36569  Biso   1.000  C
  C69      1.0000 0.19789  0.36569  0.07073  Biso   1.000  C
  C70      1.0000 0.07073  0.36569  0.19789  Biso   1.000  C
  C71      1.0000 0.63431  0.63431  0.80211  Biso   1.000  C
  C72      1.0000 0.63431  0.63431  0.92927  Biso   1.000  C
  C73      1.0000 0.92927  0.80211  0.63431  Biso   1.000  C
  C74      1.0000 0.80211  0.92927  0.63431  Biso   1.000  C
  C75      1.0000 0.80211  0.63431  0.92927  Biso   1.000  C
  C76      1.0000 0.92927  0.63431  0.80211  Biso   1.000  C
  C77      1.0000 0.63431  0.80211  0.63431  Biso   1.000  C
  C78      1.0000 0.63431  0.92927  0.63431  Biso   1.000  C
  C79      1.0000 0.92927  0.63431  0.63431  Biso   1.000  C
  C80      1.0000 0.80211  0.63431  0.63431  Biso   1.000  C
  C81      1.0000 0.63431  0.80211  0.92927  Biso   1.000  C
  C82      1.0000 0.63431  0.92927  0.80211  Biso   1.000  C
  C83      1.0000 0.45110  0.45110  0.92847  Biso   1.000  C
  C84      1.0000 0.45110  0.45110  0.16934  Biso   1.000  C
  C85      1.0000 0.92847  0.16934  0.45110  Biso   1.000  C
  C86      1.0000 0.16934  0.92847  0.45110  Biso   1.000  C
  C87      1.0000 0.45110  0.92847  0.16934  Biso   1.000  C
  C88      1.0000 0.45110  0.16934  0.92847  Biso   1.000  C
  C89      1.0000 0.92847  0.45110  0.45110  Biso   1.000  C
  C90      1.0000 0.16934  0.45110  0.45110  Biso   1.000  C
  C91      1.0000 0.45110  0.16934  0.45110  Biso   1.000  C
  C92      1.0000 0.45110  0.92847  0.45110  Biso   1.000  C
  C93      1.0000 0.92847  0.45110  0.16934  Biso   1.000  C
  C94      1.0000 0.16934  0.45110  0.92847  Biso   1.000  C
  C95      1.0000 0.54890  0.54890  0.07153  Biso   1.000  C
  C96      1.0000 0.54890  0.54890  0.83066  Biso   1.000  C
  C97      1.0000 0.83066  0.07153  0.54890  Biso   1.000  C
  C98      1.0000 0.07153  0.83066  0.54890  Biso   1.000  C
  C99      1.0000 0.07153  0.54890  0.83066  Biso   1.000  C
  C100     1.0000 0.83066  0.54890  0.07153  Biso   1.000  C
  C101     1.0000 0.54890  0.07153  0.54890  Biso   1.000  C
  C102     1.0000 0.54890  0.83066  0.54890  Biso   1.000  C
  C103     1.0000 0.83066  0.54890  0.54890  Biso   1.000  C
  C104     1.0000 0.07153  0.54890  0.54890  Biso   1.000  C
  C105     1.0000 0.54890  0.07153  0.83066  Biso   1.000  C
  C106     1.0000 0.54890  0.83066  0.07153  Biso   1.000  C
  O1       1.0000 0.46312  0.48086  0.47444  Biso   1.000  O
  O2       1.0000 0.05149  0.07711  0.07268  Biso   1.000  O
  O3       1.0000 0.46264  0.65722  0.47513  Biso   1.000  O
  O4       1.0000 0.46279  0.48111  0.65094  Biso   1.000  O
  O5       1.0000 0.63889  0.48155  0.47513  Biso   1.000  O
  O6       1.0000 0.87572  0.07642  0.07199  Biso   1.000  O
  O7       1.0000 0.05182  0.07686  0.89617  Biso   1.000  O
  O8       1.0000 0.05197  0.90075  0.07199  Biso   1.000  O
  O9       1.0000 0.29438  0.61968  0.84002  Biso   1.000  O
  O10      1.0000 0.82749  0.31426  0.61428  Biso   1.000  O
  O11      1.0000 0.60094  0.84655  0.30805  Biso   1.000  O
  O12      1.0000 0.91323  0.24427  0.70710  Biso   1.000  O
  O13      1.0000 0.22041  0.71218  0.93283  Biso   1.000  O
  O14      1.0000 0.68738  0.93696  0.23907  Biso   1.000  O
  O15      1.0000 0.22023  0.93829  0.70710  Biso   1.000  O
  O16      1.0000 0.68712  0.24371  0.93283  Biso   1.000  O
  O17      1.0000 0.91367  0.71142  0.23907  Biso   1.000  O
  O18      1.0000 0.60138  0.31369  0.84002  Biso   1.000  O
  O19      1.0000 0.29419  0.84578  0.61428  Biso   1.000  O
  O20      1.0000 0.82723  0.62101  0.30805  Biso   1.000  O
  O21      1.0000 0.30226  0.83972  0.31436  Biso   1.000  O
  O22      1.0000 0.29654  0.62202  0.30713  Biso   1.000  O
  O23      1.0000 0.30269  0.32002  0.83320  Biso   1.000  O
  O24      1.0000 0.29680  0.31334  0.61530  Biso   1.000  O
  O25      1.0000 0.82239  0.32131  0.31436  Biso   1.000  O
  O26      1.0000 0.60548  0.31411  0.30713  Biso   1.000  O
  O27      1.0000 0.69222  0.23665  0.23276  Biso   1.000  O
  O28      1.0000 0.90913  0.24386  0.23998  Biso   1.000  O
  O29      1.0000 0.21192  0.23795  0.71392  Biso   1.000  O
  O30      1.0000 0.21781  0.24463  0.93181  Biso   1.000  O
  O31      1.0000 0.21235  0.71825  0.23276  Biso   1.000  O
  O32      1.0000 0.21807  0.93594  0.23998  Biso   1.000  O
  O33      1.0000 0.27902  0.68238  0.81294  Biso   1.000  O
  O34      1.0000 0.80026  0.29895  0.67698  Biso   1.000  O
  O35      1.0000 0.66364  0.81954  0.29288  Biso   1.000  O
  O36      1.0000 0.85054  0.25936  0.73417  Biso   1.000  O
  O37      1.0000 0.23570  0.73939  0.87014  Biso   1.000  O
  O38      1.0000 0.71466  0.87428  0.25423  Biso   1.000  O
  O39      1.0000 0.23559  0.87558  0.73417  Biso   1.000  O
  O40      1.0000 0.71434  0.25902  0.87014  Biso   1.000  O
  O41      1.0000 0.85097  0.73843  0.25423  Biso   1.000  O
  O42      1.0000 0.66407  0.29861  0.81294  Biso   1.000  O
  O43      1.0000 0.27891  0.81858  0.67698  Biso   1.000  O
  O44      1.0000 0.79994  0.68368  0.29288  Biso   1.000  O
  O45      1.0000 0.36637  0.66822  0.37797  Biso   1.000  O
  O46      1.0000 0.30817  0.72317  0.31955  Biso   1.000  O
  O47      1.0000 0.28286  0.81608  0.29461  Biso   1.000  O
  O48      1.0000 0.27950  0.68460  0.29034  Biso   1.000  O
  O49      1.0000 0.36661  0.38400  0.66171  Biso   1.000  O
  O50      1.0000 0.30850  0.32549  0.71656  Biso   1.000  O
  O51      1.0000 0.28329  0.30035  0.80948  Biso   1.000  O
  O52      1.0000 0.27983  0.29641  0.67789  Biso   1.000  O
  O53      1.0000 0.65082  0.38471  0.37797  Biso   1.000  O
  O54      1.0000 0.70617  0.32649  0.31955  Biso   1.000  O
  O55      1.0000 0.79902  0.30164  0.29461  Biso   1.000  O
  O56      1.0000 0.66802  0.29737  0.29034  Biso   1.000  O
  O57      1.0000 0.86379  0.17326  0.16915  Biso   1.000  O
  O58      1.0000 0.80844  0.23148  0.22757  Biso   1.000  O
  O59      1.0000 0.71559  0.25633  0.25250  Biso   1.000  O
  O60      1.0000 0.84659  0.26059  0.25678  Biso   1.000  O
  O61      1.0000 0.14800  0.17397  0.88541  Biso   1.000  O
  O62      1.0000 0.20611  0.23247  0.83055  Biso   1.000  O
  O63      1.0000 0.23131  0.25762  0.73763  Biso   1.000  O
  O64      1.0000 0.23478  0.26156  0.86922  Biso   1.000  O
  O65      1.0000 0.14824  0.88975  0.16915  Biso   1.000  O
  O66      1.0000 0.20644  0.83479  0.22757  Biso   1.000  O
  O67      1.0000 0.23174  0.74189  0.25250  Biso   1.000  O
  O68      1.0000 0.23511  0.87336  0.25678  Biso   1.000  O
  O69      1.0000 0.36514  0.66680  0.66100  Biso   1.000  O
  O70      1.0000 0.31197  0.72061  0.71499  Biso   1.000  O
  O71      1.0000 0.64847  0.38441  0.66100  Biso   1.000  O
  O72      1.0000 0.70228  0.33160  0.71499  Biso   1.000  O
  O73      1.0000 0.64823  0.66750  0.37837  Biso   1.000  O
  O74      1.0000 0.70195  0.72158  0.32565  Biso   1.000  O
  O75      1.0000 0.86614  0.17356  0.88612  Biso   1.000  O
  O76      1.0000 0.81233  0.22637  0.83213  Biso   1.000  O
  O77      1.0000 0.14947  0.89117  0.88612  Biso   1.000  O
  O78      1.0000 0.20264  0.83736  0.83213  Biso   1.000  O
  O79      1.0000 0.86637  0.89046  0.16874  Biso   1.000  O
  O80      1.0000 0.81266  0.83639  0.22146  Biso   1.000  O
  O81      1.0000 0.38931  0.70586  0.57122  Biso   1.000  O
  O82      1.0000 0.55868  0.40830  0.69986  Biso   1.000  O
  O83      1.0000 0.68740  0.57774  0.40238  Biso   1.000  O
  O84      1.0000 0.82707  0.14935  0.97589  Biso   1.000  O
  O85      1.0000 0.12519  0.98097  0.84725  Biso   1.000  O
  O86      1.0000 0.95617  0.85169  0.14473  Biso   1.000  O
  O87      1.0000 0.12529  0.85211  0.97589  Biso   1.000  O
  O88      1.0000 0.95592  0.14967  0.84725  Biso   1.000  O
  O89      1.0000 0.82721  0.98022  0.14473  Biso   1.000  O
  O90      1.0000 0.68754  0.40862  0.57122  Biso   1.000  O
  O91      1.0000 0.38942  0.57700  0.69986  Biso   1.000  O
  O92      1.0000 0.55844  0.70628  0.40238  Biso   1.000  O
  O93      1.0000 0.50860  0.52695  0.52068  Biso   1.000  O
  O94      1.0000 0.00600  0.03102  0.02643  Biso   1.000  O
  O95      1.0000 0.38993  0.57877  0.40117  Biso   1.000  O
  O96      1.0000 0.38878  0.70690  0.40087  Biso   1.000  O
  O97      1.0000 0.39008  0.40741  0.57225  Biso   1.000  O
  O98      1.0000 0.38903  0.40678  0.70048  Biso   1.000  O
  O99      1.0000 0.56144  0.40784  0.40117  Biso   1.000  O
  O100     1.0000 0.68915  0.40753  0.40087  Biso   1.000  O
  O101     1.0000 0.95317  0.15013  0.14594  Biso   1.000  O
  O102     1.0000 0.82546  0.15044  0.14625  Biso   1.000  O
  O103     1.0000 0.12453  0.15056  0.97486  Biso   1.000  O
  O104     1.0000 0.12557  0.15118  0.84663  Biso   1.000  O
  O105     1.0000 0.12467  0.97919  0.14594  Biso   1.000  O
