data_image0
_cell_length_a       18.0449
_cell_length_b       18.0449
_cell_length_c       18.0449
_cell_angle_alpha    60
_cell_angle_beta     60
_cell_angle_gamma    60

_symmetry_space_group_name_H-M    "P 1"
_symmetry_int_tables_number       1

loop_
  _symmetry_equiv_pos_as_xyz
  'x, y, z'

loop_
  _atom_site_label
  _atom_site_occupancy
  _atom_site_fract_x
  _atom_site_fract_y
  _atom_site_fract_z
  _atom_site_thermal_displace_type
  _atom_site_B_iso_or_equiv
  _atom_site_type_symbol
  Zn1      1.0000 0.38137  0.20621  0.20621  Biso   1.000  Zn
  Zn2      1.0000 0.20621  0.38137  0.20621  Biso   1.000  Zn
  Zn3      1.0000 0.20621  0.20621  0.38137  Biso   1.000  Zn
  Zn4      1.0000 0.20621  0.20621  0.20621  Biso   1.000  Zn
  Zn5      1.0000 0.79379  0.61863  0.79379  Biso   1.000  Zn
  Zn6      1.0000 0.61863  0.79379  0.79379  Biso   1.000  Zn
  Zn7      1.0000 0.79379  0.79379  0.61863  Biso   1.000  Zn
  Zn8      1.0000 0.79379  0.79379  0.79379  Biso   1.000  Zn
  C1       1.0000 0.53160  0.41760  0.02540  Biso   1.000  C
  C2       1.0000 0.41760  0.53160  0.02540  Biso   1.000  C
  C3       1.0000 0.02540  0.02540  0.53160  Biso   1.000  C
  C4       1.0000 0.02540  0.02540  0.41760  Biso   1.000  C
  C5       1.0000 0.53160  0.02540  0.02540  Biso   1.000  C
  C6       1.0000 0.41760  0.02540  0.02540  Biso   1.000  C
  C7       1.0000 0.02540  0.53160  0.41760  Biso   1.000  C
  C8       1.0000 0.02540  0.41760  0.53160  Biso   1.000  C
  C9       1.0000 0.53160  0.02540  0.41760  Biso   1.000  C
  C10      1.0000 0.41760  0.02540  0.53160  Biso   1.000  C
  C11      1.0000 0.02540  0.41760  0.02540  Biso   1.000  C
  C12      1.0000 0.02540  0.53160  0.02540  Biso   1.000  C
  C13      1.0000 0.58240  0.46840  0.97460  Biso   1.000  C
  C14      1.0000 0.46840  0.58240  0.97460  Biso   1.000  C
  C15      1.0000 0.97460  0.97460  0.46840  Biso   1.000  C
  C16      1.0000 0.97460  0.97460  0.58240  Biso   1.000  C
  C17      1.0000 0.97460  0.46840  0.97460  Biso   1.000  C
  C18      1.0000 0.97460  0.58240  0.97460  Biso   1.000  C
  C19      1.0000 0.46840  0.97460  0.58240  Biso   1.000  C
  C20      1.0000 0.58240  0.97460  0.46840  Biso   1.000  C
  C21      1.0000 0.97460  0.46840  0.58240  Biso   1.000  C
  C22      1.0000 0.97460  0.58240  0.46840  Biso   1.000  C
  C23      1.0000 0.58240  0.97460  0.97460  Biso   1.000  C
  C24      1.0000 0.46840  0.97460  0.97460  Biso   1.000  C
  C25      1.0000 0.44560  0.44560  0.05440  Biso   1.000  C
  C26      1.0000 0.38970  0.38970  0.11030  Biso   1.000  C
  C27      1.0000 0.05440  0.05440  0.44560  Biso   1.000  C
  C28      1.0000 0.11030  0.11030  0.38970  Biso   1.000  C
  C29      1.0000 0.44560  0.05440  0.05440  Biso   1.000  C
  C30      1.0000 0.38970  0.11030  0.11030  Biso   1.000  C
  C31      1.0000 0.05440  0.44560  0.44560  Biso   1.000  C
  C32      1.0000 0.11030  0.38970  0.38970  Biso   1.000  C
  C33      1.0000 0.44560  0.05440  0.44560  Biso   1.000  C
  C34      1.0000 0.38970  0.11030  0.38970  Biso   1.000  C
  C35      1.0000 0.05440  0.44560  0.05440  Biso   1.000  C
  C36      1.0000 0.11030  0.38970  0.11030  Biso   1.000  C
  C37      1.0000 0.55440  0.55440  0.94560  Biso   1.000  C
  C38      1.0000 0.61030  0.61030  0.88970  Biso   1.000  C
  C39      1.0000 0.94560  0.94560  0.55440  Biso   1.000  C
  C40      1.0000 0.88970  0.88970  0.61030  Biso   1.000  C
  C41      1.0000 0.94560  0.55440  0.94560  Biso   1.000  C
  C42      1.0000 0.88970  0.61030  0.88970  Biso   1.000  C
  C43      1.0000 0.55440  0.94560  0.55440  Biso   1.000  C
  C44      1.0000 0.61030  0.88970  0.61030  Biso   1.000  C
  C45      1.0000 0.94560  0.55440  0.55440  Biso   1.000  C
  C46      1.0000 0.88970  0.61030  0.61030  Biso   1.000  C
  C47      1.0000 0.55440  0.94560  0.94560  Biso   1.000  C
  C48      1.0000 0.61030  0.88970  0.88970  Biso   1.000  C
  O1       1.0000 0.25000  0.25000  0.25000  Biso   1.000  O
  O2       1.0000 0.75000  0.75000  0.75000  Biso   1.000  O
  O3       1.0000 0.42550  0.30590  0.13430  Biso   1.000  O
  O4       1.0000 0.30590  0.42550  0.13430  Biso   1.000  O
  O5       1.0000 0.13430  0.13430  0.42550  Biso   1.000  O
  O6       1.0000 0.13430  0.13430  0.30590  Biso   1.000  O
  O7       1.0000 0.42550  0.13430  0.13430  Biso   1.000  O
  O8       1.0000 0.30590  0.13430  0.13430  Biso   1.000  O
  O9       1.0000 0.13430  0.42550  0.30590  Biso   1.000  O
  O10      1.0000 0.13430  0.30590  0.42550  Biso   1.000  O
  O11      1.0000 0.42550  0.13430  0.30590  Biso   1.000  O
  O12      1.0000 0.30590  0.13430  0.42550  Biso   1.000  O
  O13      1.0000 0.13430  0.30590  0.13430  Biso   1.000  O
  O14      1.0000 0.13430  0.42550  0.13430  Biso   1.000  O
  O15      1.0000 0.69410  0.57450  0.86570  Biso   1.000  O
  O16      1.0000 0.57450  0.69410  0.86570  Biso   1.000  O
  O17      1.0000 0.86570  0.86570  0.57450  Biso   1.000  O
  O18      1.0000 0.86570  0.86570  0.69410  Biso   1.000  O
  O19      1.0000 0.86570  0.57450  0.86570  Biso   1.000  O
  O20      1.0000 0.86570  0.69410  0.86570  Biso   1.000  O
  O21      1.0000 0.57450  0.86570  0.69410  Biso   1.000  O
  O22      1.0000 0.69410  0.86570  0.57450  Biso   1.000  O
  O23      1.0000 0.86570  0.57450  0.69410  Biso   1.000  O
  O24      1.0000 0.86570  0.69410  0.57450  Biso   1.000  O
  O25      1.0000 0.69410  0.86570  0.86570  Biso   1.000  O
  O26      1.0000 0.57450  0.86570  0.86570  Biso   1.000  O
  H1       1.0000 0.56398  0.34055  0.04774  Biso   1.000  H
  H2       1.0000 0.34055  0.56398  0.04774  Biso   1.000  H
  H3       1.0000 0.04774  0.04774  0.56398  Biso   1.000  H
  H4       1.0000 0.04774  0.04774  0.34055  Biso   1.000  H
  H5       1.0000 0.34055  0.04774  0.04774  Biso   1.000  H
  H6       1.0000 0.04774  0.56398  0.34055  Biso   1.000  H
  H7       1.0000 0.04774  0.34055  0.56398  Biso   1.000  H
  H8       1.0000 0.56398  0.04774  0.34055  Biso   1.000  H
  H9       1.0000 0.34055  0.04774  0.56398  Biso   1.000  H
  H10      1.0000 0.04774  0.34055  0.04774  Biso   1.000  H
  H11      1.0000 0.04774  0.56398  0.04774  Biso   1.000  H
  H12      1.0000 0.65945  0.43602  0.95226  Biso   1.000  H
  H13      1.0000 0.43602  0.65945  0.95226  Biso   1.000  H
  H14      1.0000 0.95226  0.95226  0.43602  Biso   1.000  H
  H15      1.0000 0.95226  0.95226  0.65945  Biso   1.000  H
  H16      1.0000 0.95226  0.43602  0.95226  Biso   1.000  H
  H17      1.0000 0.95226  0.65945  0.95226  Biso   1.000  H
  H18      1.0000 0.43602  0.95226  0.65945  Biso   1.000  H
  H19      1.0000 0.65945  0.95226  0.43602  Biso   1.000  H
  H20      1.0000 0.95226  0.65945  0.43602  Biso   1.000  H
  H21      1.0000 0.65945  0.95226  0.95226  Biso   1.000  H
  H22      1.0000 0.43602  0.95226  0.95226  Biso   1.000  H
  H23      1.0000 0.95226  0.43602  0.65945  Biso   1.000  H
  H24      1.0000 0.56398  0.04774  0.04774  Biso   1.000  H
  Zn9      1.0000 0.00557  0.85062  0.13574  Biso   1.000  Zn
  Zn10     1.0000 0.83082  0.02537  0.13574  Biso   1.000  Zn
  Zn11     1.0000 0.41649  0.43629  0.72141  Biso   1.000  Zn
  Zn12     1.0000 0.00557  0.02537  0.13574  Biso   1.000  Zn
  Zn13     1.0000 0.41649  0.61104  0.54666  Biso   1.000  Zn
  Zn14     1.0000 0.41649  0.43629  0.54666  Biso   1.000  Zn
  Zn15     1.0000 0.59125  0.43629  0.54666  Biso   1.000  Zn
  Zn16     1.0000 0.00557  0.02537  0.96099  Biso   1.000  Zn
  C49      1.0000 0.62364  0.76786  0.36468  Biso   1.000  C
  C50      1.0000 0.18755  0.69380  0.31772  Biso   1.000  C
  C51      1.0000 0.74806  0.25431  0.36468  Biso   1.000  C
  C52      1.0000 0.15866  0.78491  0.89529  Biso   1.000  C
  C53      1.0000 0.62364  0.25431  0.87823  Biso   1.000  C
  C54      1.0000 0.76512  0.78491  0.28882  Biso   1.000  C
  C55      1.0000 0.59795  0.61775  0.45258  Biso   1.000  C
  C56      1.0000 0.67401  0.81823  0.31772  Biso   1.000  C
  C57      1.0000 0.79843  0.69380  0.31772  Biso   1.000  C
  C58      1.0000 0.15866  0.17845  0.89529  Biso   1.000  C
  C59      1.0000 0.15866  0.78491  0.28882  Biso   1.000  C
  C60      1.0000 0.23451  0.76786  0.75380  Biso   1.000  C
  C61      1.0000 0.23451  0.64343  0.36468  Biso   1.000  C
  C62      1.0000 0.09966  0.84391  0.22982  Biso   1.000  C
  C63      1.0000 0.82412  0.11945  0.95429  Biso   1.000  C
  C64      1.0000 0.59795  0.34221  0.45258  Biso   1.000  C
  C65      1.0000 0.82412  0.11945  0.22982  Biso   1.000  C
  C66      1.0000 0.82412  0.84391  0.22982  Biso   1.000  C
  C67      1.0000 0.74806  0.64343  0.36468  Biso   1.000  C
  C68      1.0000 0.79843  0.20735  0.31772  Biso   1.000  C
  C69      1.0000 0.32241  0.61775  0.45258  Biso   1.000  C
  C70      1.0000 0.67401  0.20735  0.31772  Biso   1.000  C
  C71      1.0000 0.23451  0.64343  0.87823  Biso   1.000  C
  C72      1.0000 0.09966  0.11945  0.95429  Biso   1.000  C
  C73      1.0000 0.67401  0.20735  0.92860  Biso   1.000  C
  C74      1.0000 0.59795  0.34221  0.72812  Biso   1.000  C
  C75      1.0000 0.26341  0.67675  0.39358  Biso   1.000  C
  C76      1.0000 0.62364  0.25431  0.36468  Biso   1.000  C
  C77      1.0000 0.18755  0.20735  0.80418  Biso   1.000  C
  C78      1.0000 0.09966  0.84391  0.95429  Biso   1.000  C
  C79      1.0000 0.74806  0.25431  0.75380  Biso   1.000  C
  C80      1.0000 0.18755  0.20735  0.92860  Biso   1.000  C
  C81      1.0000 0.65695  0.28321  0.78712  Biso   1.000  C
  C82      1.0000 0.23451  0.76786  0.36468  Biso   1.000  C
  C83      1.0000 0.23451  0.25431  0.75380  Biso   1.000  C
  C84      1.0000 0.32241  0.61775  0.72812  Biso   1.000  C
  C85      1.0000 0.23451  0.25431  0.87823  Biso   1.000  C
  C86      1.0000 0.18755  0.69380  0.92860  Biso   1.000  C
  C87      1.0000 0.18755  0.81823  0.80418  Biso   1.000  C
  C88      1.0000 0.76512  0.17845  0.28882  Biso   1.000  C
  C89      1.0000 0.18755  0.81823  0.31772  Biso   1.000  C
  C90      1.0000 0.65695  0.28321  0.39358  Biso   1.000  C
  C91      1.0000 0.26341  0.67675  0.78712  Biso   1.000  C
  C92      1.0000 0.32241  0.34221  0.72812  Biso   1.000  C
  C93      1.0000 0.26341  0.28321  0.78712  Biso   1.000  C
  C94      1.0000 0.76512  0.17845  0.89529  Biso   1.000  C
  C95      1.0000 0.79843  0.20735  0.80418  Biso   1.000  C
  C96      1.0000 0.65695  0.67675  0.39358  Biso   1.000  C
  O27      1.0000 0.34338  0.66037  0.47355  Biso   1.000  O
  O28      1.0000 0.34338  0.66037  0.64355  Biso   1.000  O
  O29      1.0000 0.07868  0.80129  0.20885  Biso   1.000  O
  O30      1.0000 0.51338  0.36318  0.77074  Biso   1.000  O
  O31      1.0000 0.34338  0.36318  0.77074  Biso   1.000  O
  O32      1.0000 0.07868  0.80129  0.03885  Biso   1.000  O
  O33      1.0000 0.90869  0.09848  0.91166  Biso   1.000  O
  O34      1.0000 0.07868  0.09848  0.91166  Biso   1.000  O
  O35      1.0000 0.34338  0.53318  0.47355  Biso   1.000  O
  O36      1.0000 0.64057  0.53318  0.47355  Biso   1.000  O
  O37      1.0000 0.07868  0.92848  0.20885  Biso   1.000  O
  O38      1.0000 0.34338  0.36318  0.64355  Biso   1.000  O
  O39      1.0000 0.90869  0.09848  0.20885  Biso   1.000  O
  O40      1.0000 0.78149  0.92848  0.20885  Biso   1.000  O
  O41      1.0000 0.78149  0.09848  0.20885  Biso   1.000  O
  O42      1.0000 0.34338  0.53318  0.77074  Biso   1.000  O
  O43      1.0000 0.46018  0.47998  0.59035  Biso   1.000  O
  O44      1.0000 0.51338  0.66037  0.47355  Biso   1.000  O
  O45      1.0000 0.90869  0.80129  0.20885  Biso   1.000  O
  O46      1.0000 0.78149  0.09848  0.03885  Biso   1.000  O
  O47      1.0000 0.64057  0.36318  0.47355  Biso   1.000  O
  O48      1.0000 0.07868  0.09848  0.03885  Biso   1.000  O
  O49      1.0000 0.96189  0.98168  0.09206  Biso   1.000  O
  O50      1.0000 0.51338  0.36318  0.47355  Biso   1.000  O
  O51      1.0000 0.07868  0.92848  0.91166  Biso   1.000  O
  O52      1.0000 0.64057  0.36318  0.64355  Biso   1.000  O
  H25      1.0000 0.54658  0.80024  0.38702  Biso   1.000  H
  H26      1.0000 0.16749  0.65743  0.29766  Biso   1.000  H
  H27      1.0000 0.78044  0.27664  0.38702  Biso   1.000  H
  H28      1.0000 0.54658  0.27664  0.91061  Biso   1.000  H
  H29      1.0000 0.64163  0.89528  0.29539  Biso   1.000  H
  H30      1.0000 0.87494  0.65743  0.29766  Biso   1.000  H
  H31      1.0000 0.25685  0.80024  0.67675  Biso   1.000  H
  H32      1.0000 0.25685  0.56638  0.38702  Biso   1.000  H
  H33      1.0000 0.78044  0.56638  0.38702  Biso   1.000  H
  H34      1.0000 0.87548  0.18502  0.29539  Biso   1.000  H
  H35      1.0000 0.64163  0.18502  0.29539  Biso   1.000  H
  H36      1.0000 0.25685  0.56638  0.91061  Biso   1.000  H
  H37      1.0000 0.64163  0.18502  0.00565  Biso   1.000  H
  H38      1.0000 0.54658  0.27664  0.38702  Biso   1.000  H
  H39      1.0000 0.16749  0.18728  0.76780  Biso   1.000  H
  H40      1.0000 0.78443  0.27438  0.67729  Biso   1.000  H
  H41      1.0000 0.16749  0.18728  0.00511  Biso   1.000  H
  H42      1.0000 0.25458  0.80423  0.38475  Biso   1.000  H
  H43      1.0000 0.25685  0.27664  0.67675  Biso   1.000  H
  H44      1.0000 0.25685  0.27664  0.91061  Biso   1.000  H
  H45      1.0000 0.16749  0.65743  0.00511  Biso   1.000  H
  H46      1.0000 0.16749  0.89474  0.76780  Biso   1.000  H
  H47      1.0000 0.16749  0.89474  0.29766  Biso   1.000  H
