data_image0
_cell_length_a       18.0703
_cell_length_b       18.0703
_cell_length_c       18.0703
_cell_angle_alpha    60
_cell_angle_beta     60
_cell_angle_gamma    60

_symmetry_space_group_name_H-M    "P 1"
_symmetry_int_tables_number       1

loop_
  _symmetry_equiv_pos_as_xyz
  'x, y, z'

loop_
  _atom_site_label
  _atom_site_occupancy
  _atom_site_fract_x
  _atom_site_fract_y
  _atom_site_fract_z
  _atom_site_thermal_displace_type
  _atom_site_B_iso_or_equiv
  _atom_site_type_symbol
  C1       1.0000 0.29350  0.29350  0.29350  Biso   1.000  C
  C2       1.0000 0.29350  0.29350  0.11950  Biso   1.000  C
  C3       1.0000 0.29350  0.11950  0.29350  Biso   1.000  C
  C4       1.0000 0.11950  0.29350  0.29350  Biso   1.000  C
  C5       1.0000 0.70650  0.70650  0.70650  Biso   1.000  C
  C6       1.0000 0.70650  0.70650  0.88050  Biso   1.000  C
  C7       1.0000 0.88050  0.70650  0.70650  Biso   1.000  C
  C8       1.0000 0.70650  0.88050  0.70650  Biso   1.000  C
  C9       1.0000 0.47340  0.47340  0.96080  Biso   1.000  C
  C10      1.0000 0.47340  0.47340  0.09240  Biso   1.000  C
  C11      1.0000 0.96080  0.09240  0.47340  Biso   1.000  C
  C12      1.0000 0.09240  0.96080  0.47340  Biso   1.000  C
  C13      1.0000 0.47340  0.96080  0.09240  Biso   1.000  C
  C14      1.0000 0.47340  0.09240  0.96080  Biso   1.000  C
  C15      1.0000 0.96080  0.47340  0.47340  Biso   1.000  C
  C16      1.0000 0.09240  0.47340  0.47340  Biso   1.000  C
  C17      1.0000 0.47340  0.09240  0.47340  Biso   1.000  C
  C18      1.0000 0.47340  0.96080  0.47340  Biso   1.000  C
  C19      1.0000 0.96080  0.47340  0.09240  Biso   1.000  C
  C20      1.0000 0.09240  0.47340  0.96080  Biso   1.000  C
  C21      1.0000 0.52660  0.52660  0.03920  Biso   1.000  C
  C22      1.0000 0.52660  0.52660  0.90760  Biso   1.000  C
  C23      1.0000 0.90760  0.03920  0.52660  Biso   1.000  C
  C24      1.0000 0.03920  0.90760  0.52660  Biso   1.000  C
  C25      1.0000 0.03920  0.52660  0.90760  Biso   1.000  C
  C26      1.0000 0.90760  0.52660  0.03920  Biso   1.000  C
  C27      1.0000 0.52660  0.03920  0.52660  Biso   1.000  C
  C28      1.0000 0.52660  0.90760  0.52660  Biso   1.000  C
  C29      1.0000 0.90760  0.52660  0.52660  Biso   1.000  C
  C30      1.0000 0.03920  0.52660  0.52660  Biso   1.000  C
  C31      1.0000 0.52660  0.03920  0.90760  Biso   1.000  C
  C32      1.0000 0.52660  0.90760  0.03920  Biso   1.000  C
  C33      1.0000 0.38820  0.38820  0.11180  Biso   1.000  C
  C34      1.0000 0.44590  0.44590  0.05410  Biso   1.000  C
  C35      1.0000 0.11180  0.11180  0.38820  Biso   1.000  C
  C36      1.0000 0.05410  0.05410  0.44590  Biso   1.000  C
  C37      1.0000 0.38820  0.11180  0.11180  Biso   1.000  C
  C38      1.0000 0.44590  0.05410  0.05410  Biso   1.000  C
  C39      1.0000 0.11180  0.38820  0.38820  Biso   1.000  C
  C40      1.0000 0.05410  0.44590  0.44590  Biso   1.000  C
  C41      1.0000 0.38820  0.11180  0.38820  Biso   1.000  C
  C42      1.0000 0.44590  0.05410  0.44590  Biso   1.000  C
  C43      1.0000 0.11180  0.38820  0.11180  Biso   1.000  C
  C44      1.0000 0.05410  0.44590  0.05410  Biso   1.000  C
  C45      1.0000 0.61180  0.61180  0.88820  Biso   1.000  C
  C46      1.0000 0.55410  0.55410  0.94590  Biso   1.000  C
  C47      1.0000 0.88820  0.88820  0.61180  Biso   1.000  C
  C48      1.0000 0.94590  0.94590  0.55410  Biso   1.000  C
  C49      1.0000 0.88820  0.61180  0.88820  Biso   1.000  C
  C50      1.0000 0.94590  0.55410  0.94590  Biso   1.000  C
  C51      1.0000 0.61180  0.88820  0.61180  Biso   1.000  C
  C52      1.0000 0.55410  0.94590  0.55410  Biso   1.000  C
  C53      1.0000 0.88820  0.61180  0.61180  Biso   1.000  C
  C54      1.0000 0.94590  0.55410  0.55410  Biso   1.000  C
  C55      1.0000 0.61180  0.88820  0.88820  Biso   1.000  C
  C56      1.0000 0.55410  0.94590  0.94590  Biso   1.000  C
  C57      1.0000 0.25000  0.25000  0.25000  Biso   1.000  C
  C58      1.0000 0.75000  0.75000  0.75000  Biso   1.000  C
  C59      1.0000 0.36569  0.36569  0.19789  Biso   1.000  C
  C60      1.0000 0.36569  0.36569  0.07073  Biso   1.000  C
  C61      1.0000 0.19789  0.07073  0.36569  Biso   1.000  C
  C62      1.0000 0.07073  0.19789  0.36569  Biso   1.000  C
  C63      1.0000 0.36569  0.19789  0.07073  Biso   1.000  C
  C64      1.0000 0.36569  0.07073  0.19789  Biso   1.000  C
  C65      1.0000 0.19789  0.36569  0.36569  Biso   1.000  C
  C66      1.0000 0.07073  0.36569  0.36569  Biso   1.000  C
  C67      1.0000 0.36569  0.07073  0.36569  Biso   1.000  C
  C68      1.0000 0.36569  0.19789  0.36569  Biso   1.000  C
  C69      1.0000 0.19789  0.36569  0.07073  Biso   1.000  C
  C70      1.0000 0.07073  0.36569  0.19789  Biso   1.000  C
  C71      1.0000 0.63431  0.63431  0.80211  Biso   1.000  C
  C72      1.0000 0.63431  0.63431  0.92927  Biso   1.000  C
  C73      1.0000 0.92927  0.80211  0.63431  Biso   1.000  C
  C74      1.0000 0.80211  0.92927  0.63431  Biso   1.000  C
  C75      1.0000 0.80211  0.63431  0.92927  Biso   1.000  C
  C76      1.0000 0.92927  0.63431  0.80211  Biso   1.000  C
  C77      1.0000 0.63431  0.80211  0.63431  Biso   1.000  C
  C78      1.0000 0.63431  0.92927  0.63431  Biso   1.000  C
  C79      1.0000 0.92927  0.63431  0.63431  Biso   1.000  C
  C80      1.0000 0.80211  0.63431  0.63431  Biso   1.000  C
  C81      1.0000 0.63431  0.80211  0.92927  Biso   1.000  C
  C82      1.0000 0.63431  0.92927  0.80211  Biso   1.000  C
  C83      1.0000 0.45110  0.45110  0.92847  Biso   1.000  C
  C84      1.0000 0.45110  0.45110  0.16934  Biso   1.000  C
  C85      1.0000 0.92847  0.16934  0.45110  Biso   1.000  C
  C86      1.0000 0.16934  0.92847  0.45110  Biso   1.000  C
  C87      1.0000 0.45110  0.92847  0.16934  Biso   1.000  C
  C88      1.0000 0.45110  0.16934  0.92847  Biso   1.000  C
  C89      1.0000 0.92847  0.45110  0.45110  Biso   1.000  C
  C90      1.0000 0.16934  0.45110  0.45110  Biso   1.000  C
  C91      1.0000 0.45110  0.16934  0.45110  Biso   1.000  C
  C92      1.0000 0.45110  0.92847  0.45110  Biso   1.000  C
  C93      1.0000 0.92847  0.45110  0.16934  Biso   1.000  C
  C94      1.0000 0.16934  0.45110  0.92847  Biso   1.000  C
  C95      1.0000 0.54890  0.54890  0.07153  Biso   1.000  C
  C96      1.0000 0.54890  0.54890  0.83066  Biso   1.000  C
  C97      1.0000 0.83066  0.07153  0.54890  Biso   1.000  C
  C98      1.0000 0.07153  0.83066  0.54890  Biso   1.000  C
  C99      1.0000 0.07153  0.54890  0.83066  Biso   1.000  C
  C100     1.0000 0.83066  0.54890  0.07153  Biso   1.000  C
  C101     1.0000 0.54890  0.07153  0.54890  Biso   1.000  C
  C102     1.0000 0.54890  0.83066  0.54890  Biso   1.000  C
  C103     1.0000 0.83066  0.54890  0.54890  Biso   1.000  C
  C104     1.0000 0.07153  0.54890  0.54890  Biso   1.000  C
  C105     1.0000 0.54890  0.07153  0.83066  Biso   1.000  C
  C106     1.0000 0.54890  0.83066  0.07153  Biso   1.000  C
  O1       1.0000 0.83009  0.00000  0.00000  Biso   1.000  O
  O2       1.0000 0.43267  0.40729  0.58284  Biso   1.000  O
  O3       1.0000 0.83009  0.00000  0.17556  Biso   1.000  O
  O4       1.0000 0.00565  0.00000  0.00000  Biso   1.000  O
  O5       1.0000 0.43267  0.58284  0.58284  Biso   1.000  O
  O6       1.0000 0.83009  0.17556  0.00000  Biso   1.000  O
  O7       1.0000 0.43267  0.58284  0.40729  Biso   1.000  O
  O8       1.0000 0.25711  0.58284  0.58284  Biso   1.000  O
  O9       1.0000 0.19047  0.83545  0.83545  Biso   1.000  O
  O10      1.0000 0.58735  0.74739  0.23233  Biso   1.000  O
  O11      1.0000 0.98423  0.35051  0.83545  Biso   1.000  O
  O12      1.0000 0.58735  0.43857  0.23233  Biso   1.000  O
  O13      1.0000 0.07229  0.74739  0.74739  Biso   1.000  O
  O14      1.0000 0.67541  0.14427  0.35051  Biso   1.000  O
  O15      1.0000 0.67541  0.35051  0.14427  Biso   1.000  O
  O16      1.0000 0.27853  0.74739  0.74739  Biso   1.000  O
  O17      1.0000 0.19047  0.14427  0.83545  Biso   1.000  O
  O18      1.0000 0.98423  0.83545  0.83545  Biso   1.000  O
  O19      1.0000 0.67541  0.14427  0.83545  Biso   1.000  O
  O20      1.0000 0.19047  0.83545  0.14427  Biso   1.000  O
  O21      1.0000 0.58735  0.43857  0.74739  Biso   1.000  O
  O22      1.0000 0.58735  0.74739  0.43857  Biso   1.000  O
  O23      1.0000 0.58735  0.23233  0.43857  Biso   1.000  O
  O24      1.0000 0.07229  0.43857  0.74739  Biso   1.000  O
  O25      1.0000 0.67541  0.35051  0.83545  Biso   1.000  O
  O26      1.0000 0.27853  0.23233  0.74739  Biso   1.000  O
  O27      1.0000 0.67541  0.83545  0.14427  Biso   1.000  O
  O28      1.0000 0.58735  0.23233  0.74739  Biso   1.000  O
  O29      1.0000 0.98423  0.83545  0.35051  Biso   1.000  O
  O30      1.0000 0.27853  0.74739  0.23233  Biso   1.000  O
  O31      1.0000 0.67541  0.83545  0.35051  Biso   1.000  O
  O32      1.0000 0.07229  0.74739  0.43857  Biso   1.000  O
  O33      1.0000 0.24710  0.68064  0.68064  Biso   1.000  O
  O34      1.0000 0.19075  0.73699  0.34092  Biso   1.000  O
  O35      1.0000 0.60502  0.37606  0.76506  Biso   1.000  O
  O36      1.0000 0.65774  0.32335  0.20678  Biso   1.000  O
  O37      1.0000 0.60502  0.76506  0.25950  Biso   1.000  O
  O38      1.0000 0.16331  0.81778  0.20678  Biso   1.000  O
  O39      1.0000 0.65774  0.20678  0.81778  Biso   1.000  O
  O40      1.0000 0.01566  0.18557  0.90220  Biso   1.000  O
  O41      1.0000 0.07202  0.24192  0.84585  Biso   1.000  O
  O42      1.0000 0.21602  0.76506  0.25950  Biso   1.000  O
  O43      1.0000 0.60502  0.37606  0.25950  Biso   1.000  O
  O44      1.0000 0.73230  0.18557  0.90220  Biso   1.000  O
  O45      1.0000 0.07202  0.84585  0.84585  Biso   1.000  O
  O46      1.0000 0.19075  0.34092  0.73699  Biso   1.000  O
  O47      1.0000 0.67595  0.24192  0.24192  Biso   1.000  O
  O48      1.0000 0.19075  0.73699  0.73699  Biso   1.000  O
  O49      1.0000 0.58682  0.73699  0.34092  Biso   1.000  O
  O50      1.0000 0.01566  0.90220  0.18557  Biso   1.000  O
  O51      1.0000 0.21602  0.76506  0.76506  Biso   1.000  O
  O52      1.0000 0.65774  0.81778  0.32335  Biso   1.000  O
  O53      1.0000 0.04674  0.32335  0.81778  Biso   1.000  O
  O54      1.0000 0.04674  0.81778  0.32335  Biso   1.000  O
  O55      1.0000 0.24710  0.39727  0.68064  Biso   1.000  O
  O56      1.0000 0.58682  0.34092  0.73699  Biso   1.000  O
  O57      1.0000 0.67595  0.24192  0.84585  Biso   1.000  O
  O58      1.0000 0.73230  0.18557  0.18557  Biso   1.000  O
  O59      1.0000 0.60502  0.76506  0.37606  Biso   1.000  O
  O60      1.0000 0.07202  0.84585  0.24192  Biso   1.000  O
  O61      1.0000 0.01566  0.90220  0.90220  Biso   1.000  O
  O62      1.0000 0.53047  0.39727  0.68064  Biso   1.000  O
  O63      1.0000 0.53047  0.39727  0.39727  Biso   1.000  O
  O64      1.0000 0.04674  0.81778  0.81778  Biso   1.000  O
  O65      1.0000 0.53047  0.68064  0.39727  Biso   1.000  O
  O66      1.0000 0.16331  0.81778  0.81778  Biso   1.000  O
  O67      1.0000 0.09945  0.76506  0.76506  Biso   1.000  O
  O68      1.0000 0.16331  0.20678  0.81778  Biso   1.000  O
  O69      1.0000 0.65774  0.20678  0.32335  Biso   1.000  O
  O70      1.0000 0.65774  0.32335  0.81778  Biso   1.000  O
  O71      1.0000 0.73230  0.90220  0.18557  Biso   1.000  O
  O72      1.0000 0.65774  0.81778  0.20678  Biso   1.000  O
  O73      1.0000 0.09945  0.76506  0.37606  Biso   1.000  O
  O74      1.0000 0.24710  0.68064  0.39727  Biso   1.000  O
  O75      1.0000 0.09945  0.37606  0.76506  Biso   1.000  O
  O76      1.0000 0.60502  0.25950  0.76506  Biso   1.000  O
  O77      1.0000 0.60502  0.25950  0.37606  Biso   1.000  O
  O78      1.0000 0.67595  0.84585  0.24192  Biso   1.000  O
  O79      1.0000 0.58682  0.34092  0.34092  Biso   1.000  O
  O80      1.0000 0.21602  0.25950  0.76506  Biso   1.000  O
  O81      1.0000 0.50613  0.48543  0.35779  Biso   1.000  O
  O82      1.0000 0.75663  0.09741  0.92654  Biso   1.000  O
  O83      1.0000 0.20761  0.65630  0.65630  Biso   1.000  O
  O84      1.0000 0.50613  0.35779  0.65630  Biso   1.000  O
  O85      1.0000 0.75663  0.22506  0.09741  Biso   1.000  O
  O86      1.0000 0.75663  0.92654  0.09741  Biso   1.000  O
  O87      1.0000 0.33526  0.35779  0.65630  Biso   1.000  O
  O88      1.0000 0.20761  0.48543  0.65630  Biso   1.000  O
  O89      1.0000 0.05515  0.92654  0.09741  Biso   1.000  O
  O90      1.0000 0.92750  0.22506  0.92654  Biso   1.000  O
  O91      1.0000 0.38878  0.53896  0.53896  Biso   1.000  O
  O92      1.0000 0.50613  0.65630  0.35779  Biso   1.000  O
  O93      1.0000 0.50613  0.48543  0.65630  Biso   1.000  O
  O94      1.0000 0.05515  0.09741  0.92654  Biso   1.000  O
  O95      1.0000 0.20761  0.65630  0.48543  Biso   1.000  O
  O96      1.0000 0.75663  0.92654  0.22506  Biso   1.000  O
  O97      1.0000 0.33526  0.65630  0.35779  Biso   1.000  O
  O98      1.0000 0.92750  0.92654  0.22506  Biso   1.000  O
  O99      1.0000 0.50613  0.35778  0.48543  Biso   1.000  O
  O100     1.0000 0.75663  0.22506  0.92654  Biso   1.000  O
  O101     1.0000 0.75663  0.09741  0.22506  Biso   1.000  O
  O102     1.0000 0.50613  0.65630  0.48543  Biso   1.000  O
  O103     1.0000 0.87398  0.04389  0.04389  Biso   1.000  O
  O104     1.0000 0.05515  0.92654  0.92654  Biso   1.000  O
  O105     1.0000 0.33526  0.65630  0.65630  Biso   1.000  O
