data_image0
_cell_length_a       18.2016
_cell_length_b       18.2016
_cell_length_c       18.2016
_cell_angle_alpha    60
_cell_angle_beta     60
_cell_angle_gamma    60

_symmetry_space_group_name_H-M    "P 1"
_symmetry_int_tables_number       1

loop_
  _symmetry_equiv_pos_as_xyz
  'x, y, z'

loop_
  _atom_site_label
  _atom_site_occupancy
  _atom_site_fract_x
  _atom_site_fract_y
  _atom_site_fract_z
  _atom_site_thermal_displace_type
  _atom_site_B_iso_or_equiv
  _atom_site_type_symbol
  C1       1.0000 0.54338  0.36986  0.54338  Biso   1.000  C
  C2       1.0000 0.36986  0.54338  0.54338  Biso   1.000  C
  C3       1.0000 0.54338  0.54338  0.54338  Biso   1.000  C
  C4       1.0000 0.54338  0.54338  0.36986  Biso   1.000  C
  C5       1.0000 0.13029  0.95657  0.95657  Biso   1.000  C
  C6       1.0000 0.95657  0.13029  0.95657  Biso   1.000  C
  C7       1.0000 0.95657  0.95657  0.13029  Biso   1.000  C
  C8       1.0000 0.95657  0.95657  0.95657  Biso   1.000  C
  C9       1.0000 0.31480  0.09680  0.79420  Biso   1.000  C
  C10      1.0000 0.09680  0.31480  0.79420  Biso   1.000  C
  C11      1.0000 0.79420  0.79420  0.31480  Biso   1.000  C
  C12      1.0000 0.79420  0.79420  0.09680  Biso   1.000  C
  C13      1.0000 0.31480  0.79420  0.79420  Biso   1.000  C
  C14      1.0000 0.09680  0.79420  0.79420  Biso   1.000  C
  C15      1.0000 0.79420  0.31480  0.09680  Biso   1.000  C
  C16      1.0000 0.79420  0.09680  0.31480  Biso   1.000  C
  C17      1.0000 0.31480  0.79420  0.09680  Biso   1.000  C
  C18      1.0000 0.09680  0.79420  0.31480  Biso   1.000  C
  C19      1.0000 0.79420  0.09680  0.79420  Biso   1.000  C
  C20      1.0000 0.79420  0.31480  0.79420  Biso   1.000  C
  C21      1.0000 0.33050  0.21250  0.72850  Biso   1.000  C
  C22      1.0000 0.28810  0.15890  0.77650  Biso   1.000  C
  C23      1.0000 0.21250  0.33050  0.72850  Biso   1.000  C
  C24      1.0000 0.15890  0.28810  0.77650  Biso   1.000  C
  C25      1.0000 0.72850  0.72850  0.33050  Biso   1.000  C
  C26      1.0000 0.77650  0.77650  0.28810  Biso   1.000  C
  C27      1.0000 0.72850  0.72850  0.21250  Biso   1.000  C
  C28      1.0000 0.77650  0.77650  0.15890  Biso   1.000  C
  C29      1.0000 0.33050  0.72850  0.72850  Biso   1.000  C
  C30      1.0000 0.28810  0.77650  0.77650  Biso   1.000  C
  C31      1.0000 0.21250  0.72850  0.72850  Biso   1.000  C
  C32      1.0000 0.15890  0.77650  0.77650  Biso   1.000  C
  C33      1.0000 0.72850  0.33050  0.21250  Biso   1.000  C
  C34      1.0000 0.77650  0.28810  0.15890  Biso   1.000  C
  C35      1.0000 0.72850  0.21250  0.33050  Biso   1.000  C
  C36      1.0000 0.77650  0.15890  0.28810  Biso   1.000  C
  C37      1.0000 0.33050  0.72850  0.21250  Biso   1.000  C
  C38      1.0000 0.28810  0.77650  0.15890  Biso   1.000  C
  C39      1.0000 0.21250  0.72850  0.33050  Biso   1.000  C
  C40      1.0000 0.15890  0.77650  0.28810  Biso   1.000  C
  C41      1.0000 0.72850  0.21250  0.72850  Biso   1.000  C
  C42      1.0000 0.77650  0.15890  0.77650  Biso   1.000  C
  C43      1.0000 0.72850  0.33050  0.72850  Biso   1.000  C
  C44      1.0000 0.77650  0.28810  0.77650  Biso   1.000  C
  C45      1.0000 0.30490  0.30490  0.69510  Biso   1.000  C
  C46      1.0000 0.20070  0.20070  0.79930  Biso   1.000  C
  C47      1.0000 0.13930  0.13930  0.86070  Biso   1.000  C
  C48      1.0000 0.36170  0.36170  0.63830  Biso   1.000  C
  C49      1.0000 0.69510  0.69510  0.30490  Biso   1.000  C
  C50      1.0000 0.79930  0.79930  0.20070  Biso   1.000  C
  C51      1.0000 0.86070  0.86070  0.13930  Biso   1.000  C
  C52      1.0000 0.63830  0.63830  0.36170  Biso   1.000  C
  C53      1.0000 0.30490  0.69510  0.69510  Biso   1.000  C
  C54      1.0000 0.20070  0.79930  0.79930  Biso   1.000  C
  C55      1.0000 0.13930  0.86070  0.86070  Biso   1.000  C
  C56      1.0000 0.36170  0.63830  0.63830  Biso   1.000  C
  C57      1.0000 0.69510  0.30490  0.30490  Biso   1.000  C
  C58      1.0000 0.79930  0.20070  0.20070  Biso   1.000  C
  C59      1.0000 0.86070  0.13930  0.13930  Biso   1.000  C
  C60      1.0000 0.63830  0.36170  0.36170  Biso   1.000  C
  C61      1.0000 0.30490  0.69510  0.30490  Biso   1.000  C
  C62      1.0000 0.20070  0.79930  0.20070  Biso   1.000  C
  C63      1.0000 0.13930  0.86070  0.13930  Biso   1.000  C
  C64      1.0000 0.36170  0.63830  0.36170  Biso   1.000  C
  C65      1.0000 0.69510  0.30490  0.69510  Biso   1.000  C
  C66      1.0000 0.79930  0.20070  0.79930  Biso   1.000  C
  C67      1.0000 0.86070  0.13930  0.86070  Biso   1.000  C
  C68      1.0000 0.63830  0.36170  0.63830  Biso   1.000  C
  C69      1.0000 0.17850  0.05170  0.88490  Biso   1.000  C
  C70      1.0000 0.44150  0.32470  0.61690  Biso   1.000  C
  C71      1.0000 0.05170  0.17850  0.88490  Biso   1.000  C
  C72      1.0000 0.32470  0.44150  0.61690  Biso   1.000  C
  C73      1.0000 0.88490  0.88490  0.17850  Biso   1.000  C
  C74      1.0000 0.61690  0.61690  0.44150  Biso   1.000  C
  C75      1.0000 0.88490  0.88490  0.05170  Biso   1.000  C
  C76      1.0000 0.61690  0.61690  0.32470  Biso   1.000  C
  C77      1.0000 0.17850  0.88490  0.88490  Biso   1.000  C
  C78      1.0000 0.44150  0.61690  0.61690  Biso   1.000  C
  C79      1.0000 0.05170  0.88490  0.88490  Biso   1.000  C
  C80      1.0000 0.32470  0.61690  0.61690  Biso   1.000  C
  C81      1.0000 0.88490  0.17850  0.05170  Biso   1.000  C
  C82      1.0000 0.61690  0.44150  0.32470  Biso   1.000  C
  C83      1.0000 0.88490  0.05170  0.17850  Biso   1.000  C
  C84      1.0000 0.61690  0.32470  0.44150  Biso   1.000  C
  C85      1.0000 0.17850  0.88490  0.05170  Biso   1.000  C
  C86      1.0000 0.44150  0.61690  0.32470  Biso   1.000  C
  C87      1.0000 0.05170  0.88490  0.17850  Biso   1.000  C
  C88      1.0000 0.32470  0.61690  0.44150  Biso   1.000  C
  C89      1.0000 0.88490  0.05170  0.88490  Biso   1.000  C
  C90      1.0000 0.61690  0.32470  0.61690  Biso   1.000  C
  C91      1.0000 0.88490  0.17850  0.88490  Biso   1.000  C
  C92      1.0000 0.61690  0.44150  0.61690  Biso   1.000  C
  C93      1.0000 0.00000  0.00000  0.00000  Biso   1.000  C
  C94      1.0000 0.50000  0.50000  0.50000  Biso   1.000  C
  O1       1.0000 0.36532  0.14161  0.33644  Biso   1.000  O
  O2       1.0000 0.36532  0.96796  0.33644  Biso   1.000  O
  O3       1.0000 0.36532  0.14161  0.16279  Biso   1.000  O
  O4       1.0000 0.19167  0.14161  0.33644  Biso   1.000  O
  O5       1.0000 0.76558  0.73274  0.75392  Biso   1.000  O
  O6       1.0000 0.76558  0.55909  0.75392  Biso   1.000  O
  O7       1.0000 0.76558  0.55909  0.92757  Biso   1.000  O
  O8       1.0000 0.93923  0.55909  0.75392  Biso   1.000  O
  O9       1.0000 0.54457  0.93204  0.51569  Biso   1.000  O
  O10      1.0000 0.54457  0.81902  0.51569  Biso   1.000  O
  O11      1.0000 0.15575  0.32087  0.01385  Biso   1.000  O
  O12      1.0000 0.04273  0.32087  0.12687  Biso   1.000  O
  O13      1.0000 0.15575  0.32087  0.51569  Biso   1.000  O
  O14      1.0000 0.04273  0.32087  0.51569  Biso   1.000  O
  O15      1.0000 0.54457  0.81902  0.12687  Biso   1.000  O
  O16      1.0000 0.54457  0.93204  0.01385  Biso   1.000  O
  O17      1.0000 0.54457  0.32087  0.12687  Biso   1.000  O
  O18      1.0000 0.54457  0.32087  0.01385  Biso   1.000  O
  O19      1.0000 0.04273  0.93204  0.51569  Biso   1.000  O
  O20      1.0000 0.15575  0.81902  0.51569  Biso   1.000  O
  O21      1.0000 0.58632  0.88168  0.57466  Biso   1.000  O
  O22      1.0000 0.58632  0.76866  0.57466  Biso   1.000  O
  O23      1.0000 0.97515  0.37984  0.07651  Biso   1.000  O
  O24      1.0000 0.08817  0.37984  0.96349  Biso   1.000  O
  O25      1.0000 0.97515  0.88168  0.57466  Biso   1.000  O
  O26      1.0000 0.08817  0.76866  0.57466  Biso   1.000  O
  O27      1.0000 0.58632  0.37984  0.96349  Biso   1.000  O
  O28      1.0000 0.58632  0.37984  0.07651  Biso   1.000  O
  O29      1.0000 0.58632  0.88168  0.96349  Biso   1.000  O
  O30      1.0000 0.58632  0.76866  0.07651  Biso   1.000  O
  O31      1.0000 0.08817  0.37984  0.57466  Biso   1.000  O
  O32      1.0000 0.97515  0.37984  0.57466  Biso   1.000  O
  O33      1.0000 0.51582  0.90428  0.48694  Biso   1.000  O
  O34      1.0000 0.46040  0.95970  0.43152  Biso   1.000  O
  O35      1.0000 0.12799  0.29211  0.09911  Biso   1.000  O
  O36      1.0000 0.18341  0.23670  0.15453  Biso   1.000  O
  O37      1.0000 0.12799  0.29211  0.48694  Biso   1.000  O
  O38      1.0000 0.18341  0.23670  0.43152  Biso   1.000  O
  O39      1.0000 0.51582  0.90428  0.09911  Biso   1.000  O
  O40      1.0000 0.46040  0.95970  0.15453  Biso   1.000  O
  O41      1.0000 0.51582  0.29211  0.09911  Biso   1.000  O
  O42      1.0000 0.46040  0.23670  0.15453  Biso   1.000  O
  O43      1.0000 0.12799  0.90428  0.48694  Biso   1.000  O
  O44      1.0000 0.18341  0.95970  0.43152  Biso   1.000  O
  O45      1.0000 0.61507  0.79642  0.60341  Biso   1.000  O
  O46      1.0000 0.67049  0.74100  0.65883  Biso   1.000  O
  O47      1.0000 0.00291  0.40859  0.99125  Biso   1.000  O
  O48      1.0000 0.94749  0.46401  0.93583  Biso   1.000  O
  O49      1.0000 0.00291  0.79642  0.60341  Biso   1.000  O
  O50      1.0000 0.94749  0.74100  0.65883  Biso   1.000  O
  O51      1.0000 0.61507  0.40859  0.99125  Biso   1.000  O
  O52      1.0000 0.67049  0.46401  0.93583  Biso   1.000  O
  O53      1.0000 0.61507  0.79642  0.99125  Biso   1.000  O
  O54      1.0000 0.67049  0.74100  0.93583  Biso   1.000  O
  O55      1.0000 0.00291  0.40859  0.60341  Biso   1.000  O
  O56      1.0000 0.94749  0.46401  0.65883  Biso   1.000  O
  O57      1.0000 0.32190  0.09820  0.29303  Biso   1.000  O
  O58      1.0000 0.80899  0.60250  0.79733  Biso   1.000  O
  O59      1.0000 0.43661  0.04278  0.40773  Biso   1.000  O
  O60      1.0000 0.43661  0.92421  0.40773  Biso   1.000  O
  O61      1.0000 0.26649  0.21290  0.11904  Biso   1.000  O
  O62      1.0000 0.14792  0.21290  0.23761  Biso   1.000  O
  O63      1.0000 0.26649  0.21290  0.40773  Biso   1.000  O
  O64      1.0000 0.14792  0.21290  0.40773  Biso   1.000  O
  O65      1.0000 0.43661  0.92421  0.23761  Biso   1.000  O
  O66      1.0000 0.43661  0.04278  0.11904  Biso   1.000  O
  O67      1.0000 0.43661  0.21290  0.23761  Biso   1.000  O
  O68      1.0000 0.43661  0.21290  0.11904  Biso   1.000  O
  O69      1.0000 0.14792  0.04278  0.40773  Biso   1.000  O
  O70      1.0000 0.26649  0.92421  0.40773  Biso   1.000  O
  O71      1.0000 0.69429  0.77649  0.68263  Biso   1.000  O
  O72      1.0000 0.69429  0.65792  0.68263  Biso   1.000  O
  O73      1.0000 0.86441  0.48780  0.97132  Biso   1.000  O
  O74      1.0000 0.98298  0.48780  0.85275  Biso   1.000  O
  O75      1.0000 0.86441  0.77649  0.68263  Biso   1.000  O
  O76      1.0000 0.98298  0.65792  0.68263  Biso   1.000  O
  O77      1.0000 0.69429  0.48780  0.85275  Biso   1.000  O
  O78      1.0000 0.69429  0.48780  0.97132  Biso   1.000  O
  O79      1.0000 0.69429  0.77649  0.85275  Biso   1.000  O
  O80      1.0000 0.69429  0.65792  0.97132  Biso   1.000  O
  O81      1.0000 0.98298  0.48780  0.68263  Biso   1.000  O
  O82      1.0000 0.86441  0.48780  0.68263  Biso   1.000  O
  O83      1.0000 0.52243  0.00843  0.49354  Biso   1.000  O
  O84      1.0000 0.52243  0.78692  0.49354  Biso   1.000  O
  O85      1.0000 0.23214  0.29872  0.98175  Biso   1.000  O
  O86      1.0000 0.01064  0.29872  0.20326  Biso   1.000  O
  O87      1.0000 0.01064  0.29872  0.49354  Biso   1.000  O
  O88      1.0000 0.52243  0.78692  0.20326  Biso   1.000  O
  O89      1.0000 0.52243  0.00843  0.98175  Biso   1.000  O
  O90      1.0000 0.52243  0.29872  0.20326  Biso   1.000  O
  O91      1.0000 0.52243  0.29872  0.98175  Biso   1.000  O
  O92      1.0000 0.01064  0.00843  0.49354  Biso   1.000  O
  O93      1.0000 0.23214  0.78692  0.49354  Biso   1.000  O
  O94      1.0000 0.60846  0.91378  0.59681  Biso   1.000  O
  O95      1.0000 0.60846  0.69227  0.59681  Biso   1.000  O
  O96      1.0000 0.89875  0.40198  0.10861  Biso   1.000  O
  O97      1.0000 0.12026  0.40198  0.88710  Biso   1.000  O
  O98      1.0000 0.89875  0.91378  0.59681  Biso   1.000  O
  O99      1.0000 0.12026  0.69227  0.59681  Biso   1.000  O
  O100     1.0000 0.60846  0.40198  0.88710  Biso   1.000  O
  O101     1.0000 0.60846  0.40198  0.10861  Biso   1.000  O
  O102     1.0000 0.60846  0.69227  0.10861  Biso   1.000  O
  O103     1.0000 0.12026  0.40198  0.59681  Biso   1.000  O
  O104     1.0000 0.89875  0.40198  0.59681  Biso   1.000  O
  O105     1.0000 0.60846  0.91378  0.88710  Biso   1.000  O
