data_image0
_cell_length_a       18.2016
_cell_length_b       18.2016
_cell_length_c       18.2016
_cell_angle_alpha    60
_cell_angle_beta     60
_cell_angle_gamma    60

_symmetry_space_group_name_H-M    "P 1"
_symmetry_int_tables_number       1

loop_
  _symmetry_equiv_pos_as_xyz
  'x, y, z'

loop_
  _atom_site_label
  _atom_site_occupancy
  _atom_site_fract_x
  _atom_site_fract_y
  _atom_site_fract_z
  _atom_site_thermal_displace_type
  _atom_site_B_iso_or_equiv
  _atom_site_type_symbol
  C1       1.0000 0.54338  0.36986  0.54338  Biso   1.000  C
  C2       1.0000 0.36986  0.54338  0.54338  Biso   1.000  C
  C3       1.0000 0.54338  0.54338  0.54338  Biso   1.000  C
  C4       1.0000 0.54338  0.54338  0.36986  Biso   1.000  C
  C5       1.0000 0.13029  0.95657  0.95657  Biso   1.000  C
  C6       1.0000 0.95657  0.13029  0.95657  Biso   1.000  C
  C7       1.0000 0.95657  0.95657  0.13029  Biso   1.000  C
  C8       1.0000 0.95657  0.95657  0.95657  Biso   1.000  C
  C9       1.0000 0.31480  0.09680  0.79420  Biso   1.000  C
  C10      1.0000 0.09680  0.31480  0.79420  Biso   1.000  C
  C11      1.0000 0.79420  0.79420  0.31480  Biso   1.000  C
  C12      1.0000 0.79420  0.79420  0.09680  Biso   1.000  C
  C13      1.0000 0.31480  0.79420  0.79420  Biso   1.000  C
  C14      1.0000 0.09680  0.79420  0.79420  Biso   1.000  C
  C15      1.0000 0.79420  0.31480  0.09680  Biso   1.000  C
  C16      1.0000 0.79420  0.09680  0.31480  Biso   1.000  C
  C17      1.0000 0.31480  0.79420  0.09680  Biso   1.000  C
  C18      1.0000 0.09680  0.79420  0.31480  Biso   1.000  C
  C19      1.0000 0.79420  0.09680  0.79420  Biso   1.000  C
  C20      1.0000 0.79420  0.31480  0.79420  Biso   1.000  C
  C21      1.0000 0.33050  0.21250  0.72850  Biso   1.000  C
  C22      1.0000 0.28810  0.15890  0.77650  Biso   1.000  C
  C23      1.0000 0.21250  0.33050  0.72850  Biso   1.000  C
  C24      1.0000 0.15890  0.28810  0.77650  Biso   1.000  C
  C25      1.0000 0.72850  0.72850  0.33050  Biso   1.000  C
  C26      1.0000 0.77650  0.77650  0.28810  Biso   1.000  C
  C27      1.0000 0.72850  0.72850  0.21250  Biso   1.000  C
  C28      1.0000 0.77650  0.77650  0.15890  Biso   1.000  C
  C29      1.0000 0.33050  0.72850  0.72850  Biso   1.000  C
  C30      1.0000 0.28810  0.77650  0.77650  Biso   1.000  C
  C31      1.0000 0.21250  0.72850  0.72850  Biso   1.000  C
  C32      1.0000 0.15890  0.77650  0.77650  Biso   1.000  C
  C33      1.0000 0.72850  0.33050  0.21250  Biso   1.000  C
  C34      1.0000 0.77650  0.28810  0.15890  Biso   1.000  C
  C35      1.0000 0.72850  0.21250  0.33050  Biso   1.000  C
  C36      1.0000 0.77650  0.15890  0.28810  Biso   1.000  C
  C37      1.0000 0.33050  0.72850  0.21250  Biso   1.000  C
  C38      1.0000 0.28810  0.77650  0.15890  Biso   1.000  C
  C39      1.0000 0.21250  0.72850  0.33050  Biso   1.000  C
  C40      1.0000 0.15890  0.77650  0.28810  Biso   1.000  C
  C41      1.0000 0.72850  0.21250  0.72850  Biso   1.000  C
  C42      1.0000 0.77650  0.15890  0.77650  Biso   1.000  C
  C43      1.0000 0.72850  0.33050  0.72850  Biso   1.000  C
  C44      1.0000 0.77650  0.28810  0.77650  Biso   1.000  C
  C45      1.0000 0.30490  0.30490  0.69510  Biso   1.000  C
  C46      1.0000 0.20070  0.20070  0.79930  Biso   1.000  C
  C47      1.0000 0.13930  0.13930  0.86070  Biso   1.000  C
  C48      1.0000 0.36170  0.36170  0.63830  Biso   1.000  C
  C49      1.0000 0.69510  0.69510  0.30490  Biso   1.000  C
  C50      1.0000 0.79930  0.79930  0.20070  Biso   1.000  C
  C51      1.0000 0.86070  0.86070  0.13930  Biso   1.000  C
  C52      1.0000 0.63830  0.63830  0.36170  Biso   1.000  C
  C53      1.0000 0.30490  0.69510  0.69510  Biso   1.000  C
  C54      1.0000 0.20070  0.79930  0.79930  Biso   1.000  C
  C55      1.0000 0.13930  0.86070  0.86070  Biso   1.000  C
  C56      1.0000 0.36170  0.63830  0.63830  Biso   1.000  C
  C57      1.0000 0.69510  0.30490  0.30490  Biso   1.000  C
  C58      1.0000 0.79930  0.20070  0.20070  Biso   1.000  C
  C59      1.0000 0.86070  0.13930  0.13930  Biso   1.000  C
  C60      1.0000 0.63830  0.36170  0.36170  Biso   1.000  C
  C61      1.0000 0.30490  0.69510  0.30490  Biso   1.000  C
  C62      1.0000 0.20070  0.79930  0.20070  Biso   1.000  C
  C63      1.0000 0.13930  0.86070  0.13930  Biso   1.000  C
  C64      1.0000 0.36170  0.63830  0.36170  Biso   1.000  C
  C65      1.0000 0.69510  0.30490  0.69510  Biso   1.000  C
  C66      1.0000 0.79930  0.20070  0.79930  Biso   1.000  C
  C67      1.0000 0.86070  0.13930  0.86070  Biso   1.000  C
  C68      1.0000 0.63830  0.36170  0.63830  Biso   1.000  C
  C69      1.0000 0.17850  0.05170  0.88490  Biso   1.000  C
  C70      1.0000 0.44150  0.32470  0.61690  Biso   1.000  C
  C71      1.0000 0.05170  0.17850  0.88490  Biso   1.000  C
  C72      1.0000 0.32470  0.44150  0.61690  Biso   1.000  C
  C73      1.0000 0.88490  0.88490  0.17850  Biso   1.000  C
  C74      1.0000 0.61690  0.61690  0.44150  Biso   1.000  C
  C75      1.0000 0.88490  0.88490  0.05170  Biso   1.000  C
  C76      1.0000 0.61690  0.61690  0.32470  Biso   1.000  C
  C77      1.0000 0.17850  0.88490  0.88490  Biso   1.000  C
  C78      1.0000 0.44150  0.61690  0.61690  Biso   1.000  C
  C79      1.0000 0.05170  0.88490  0.88490  Biso   1.000  C
  C80      1.0000 0.32470  0.61690  0.61690  Biso   1.000  C
  C81      1.0000 0.88490  0.17850  0.05170  Biso   1.000  C
  C82      1.0000 0.61690  0.44150  0.32470  Biso   1.000  C
  C83      1.0000 0.88490  0.05170  0.17850  Biso   1.000  C
  C84      1.0000 0.61690  0.32470  0.44150  Biso   1.000  C
  C85      1.0000 0.17850  0.88490  0.05170  Biso   1.000  C
  C86      1.0000 0.44150  0.61690  0.32470  Biso   1.000  C
  C87      1.0000 0.05170  0.88490  0.17850  Biso   1.000  C
  C88      1.0000 0.32470  0.61690  0.44150  Biso   1.000  C
  C89      1.0000 0.88490  0.05170  0.88490  Biso   1.000  C
  C90      1.0000 0.61690  0.32470  0.61690  Biso   1.000  C
  C91      1.0000 0.88490  0.17850  0.88490  Biso   1.000  C
  C92      1.0000 0.61690  0.44150  0.61690  Biso   1.000  C
  C93      1.0000 0.00000  0.00000  0.00000  Biso   1.000  C
  C94      1.0000 0.50000  0.50000  0.50000  Biso   1.000  C
  O1       1.0000 0.33586  0.31720  0.00000  Biso   1.000  O
  O2       1.0000 0.33586  0.31720  0.17468  Biso   1.000  O
  O3       1.0000 0.16119  0.31720  0.17468  Biso   1.000  O
  O4       1.0000 0.33586  0.14252  0.17468  Biso   1.000  O
  O5       1.0000 0.75086  0.73218  0.76433  Biso   1.000  O
  O6       1.0000 0.75086  0.73218  0.58965  Biso   1.000  O
  O7       1.0000 0.75086  0.90685  0.58965  Biso   1.000  O
  O8       1.0000 0.92554  0.73218  0.58965  Biso   1.000  O
  O9       1.0000 0.49815  0.47948  0.81939  Biso   1.000  O
  O10      1.0000 0.49815  0.47948  0.03536  Biso   1.000  O
  O11      1.0000 0.98058  0.17788  0.33696  Biso   1.000  O
  O12      1.0000 0.19656  0.96191  0.33696  Biso   1.000  O
  O13      1.0000 0.49815  0.96191  0.03536  Biso   1.000  O
  O14      1.0000 0.49815  0.17788  0.81939  Biso   1.000  O
  O15      1.0000 0.98058  0.47948  0.33696  Biso   1.000  O
  O16      1.0000 0.19656  0.47948  0.33696  Biso   1.000  O
  O17      1.0000 0.49815  0.17788  0.33696  Biso   1.000  O
  O18      1.0000 0.49815  0.96191  0.33696  Biso   1.000  O
  O19      1.0000 0.98058  0.47948  0.03536  Biso   1.000  O
  O20      1.0000 0.19656  0.47948  0.81939  Biso   1.000  O
  O21      1.0000 0.58857  0.56990  0.94495  Biso   1.000  O
  O22      1.0000 0.58857  0.56990  0.72897  Biso   1.000  O
  O23      1.0000 0.89016  0.08747  0.42737  Biso   1.000  O
  O24      1.0000 0.10614  0.87149  0.42737  Biso   1.000  O
  O25      1.0000 0.10614  0.56990  0.72897  Biso   1.000  O
  O26      1.0000 0.89016  0.56990  0.94495  Biso   1.000  O
  O27      1.0000 0.58857  0.08747  0.42737  Biso   1.000  O
  O28      1.0000 0.58857  0.87149  0.42737  Biso   1.000  O
  O29      1.0000 0.89016  0.56990  0.42737  Biso   1.000  O
  O30      1.0000 0.10614  0.56990  0.42737  Biso   1.000  O
  O31      1.0000 0.58857  0.08747  0.72897  Biso   1.000  O
  O32      1.0000 0.58857  0.87149  0.94495  Biso   1.000  O
  O33      1.0000 0.51646  0.49778  0.84643  Biso   1.000  O
  O34      1.0000 0.51646  0.49778  0.97171  Biso   1.000  O
  O35      1.0000 0.00763  0.11423  0.35526  Biso   1.000  O
  O36      1.0000 0.13291  0.98895  0.35526  Biso   1.000  O
  O37      1.0000 0.51646  0.98895  0.97171  Biso   1.000  O
  O38      1.0000 0.51646  0.11423  0.84643  Biso   1.000  O
  O39      1.0000 0.00763  0.49778  0.35526  Biso   1.000  O
  O40      1.0000 0.13291  0.49778  0.35526  Biso   1.000  O
  O41      1.0000 0.51646  0.11423  0.35526  Biso   1.000  O
  O42      1.0000 0.51646  0.98895  0.35526  Biso   1.000  O
  O43      1.0000 0.00763  0.49778  0.97171  Biso   1.000  O
  O44      1.0000 0.13291  0.49778  0.84643  Biso   1.000  O
  O45      1.0000 0.57027  0.55159  0.91790  Biso   1.000  O
  O46      1.0000 0.57027  0.55159  0.79262  Biso   1.000  O
  O47      1.0000 0.95382  0.06042  0.40907  Biso   1.000  O
  O48      1.0000 0.07910  0.93514  0.40907  Biso   1.000  O
  O49      1.0000 0.07910  0.55159  0.79262  Biso   1.000  O
  O50      1.0000 0.95382  0.55159  0.91790  Biso   1.000  O
  O51      1.0000 0.57027  0.06042  0.40907  Biso   1.000  O
  O52      1.0000 0.57027  0.93514  0.40907  Biso   1.000  O
  O53      1.0000 0.95382  0.55159  0.40907  Biso   1.000  O
  O54      1.0000 0.07910  0.55159  0.40907  Biso   1.000  O
  O55      1.0000 0.57027  0.06042  0.79262  Biso   1.000  O
  O56      1.0000 0.57027  0.93514  0.91790  Biso   1.000  O
  O57      1.0000 0.43124  0.41257  0.99196  Biso   1.000  O
  O58      1.0000 0.48950  0.47083  0.93370  Biso   1.000  O
  O59      1.0000 0.15316  0.13448  0.27005  Biso   1.000  O
  O60      1.0000 0.09490  0.07622  0.32831  Biso   1.000  O
  O61      1.0000 0.43124  0.13448  0.99196  Biso   1.000  O
  O62      1.0000 0.48950  0.07622  0.93370  Biso   1.000  O
  O63      1.0000 0.15316  0.41257  0.27005  Biso   1.000  O
  O64      1.0000 0.09490  0.47083  0.32831  Biso   1.000  O
  O65      1.0000 0.43124  0.13448  0.27005  Biso   1.000  O
  O66      1.0000 0.48950  0.07622  0.32831  Biso   1.000  O
  O67      1.0000 0.15316  0.41257  0.99196  Biso   1.000  O
  O68      1.0000 0.09490  0.47083  0.93370  Biso   1.000  O
  O69      1.0000 0.65548  0.63680  0.77237  Biso   1.000  O
  O70      1.0000 0.59722  0.57855  0.83063  Biso   1.000  O
  O71      1.0000 0.93357  0.91489  0.49428  Biso   1.000  O
  O72      1.0000 0.99182  0.97315  0.43602  Biso   1.000  O
  O73      1.0000 0.93357  0.63680  0.77237  Biso   1.000  O
  O74      1.0000 0.99182  0.57855  0.83063  Biso   1.000  O
  O75      1.0000 0.65548  0.91489  0.49428  Biso   1.000  O
  O76      1.0000 0.59722  0.97315  0.43602  Biso   1.000  O
  O77      1.0000 0.93357  0.63680  0.49428  Biso   1.000  O
  O78      1.0000 0.99182  0.57855  0.43602  Biso   1.000  O
  O79      1.0000 0.65548  0.91489  0.77237  Biso   1.000  O
  O80      1.0000 0.59722  0.97315  0.83063  Biso   1.000  O
  O81      1.0000 0.29220  0.27353  0.13101  Biso   1.000  O
  O82      1.0000 0.79452  0.77585  0.63333  Biso   1.000  O
  O83      1.0000 0.40886  0.39018  0.95316  Biso   1.000  O
  O84      1.0000 0.40886  0.39018  0.07553  Biso   1.000  O
  O85      1.0000 0.11436  0.21805  0.24766  Biso   1.000  O
  O86      1.0000 0.23673  0.09568  0.24766  Biso   1.000  O
  O87      1.0000 0.40886  0.09568  0.07553  Biso   1.000  O
  O88      1.0000 0.40886  0.21805  0.95316  Biso   1.000  O
  O89      1.0000 0.11436  0.39018  0.24766  Biso   1.000  O
  O90      1.0000 0.23673  0.39018  0.24766  Biso   1.000  O
  O91      1.0000 0.40886  0.21805  0.24766  Biso   1.000  O
  O92      1.0000 0.40886  0.09568  0.24766  Biso   1.000  O
  O93      1.0000 0.11436  0.39018  0.07553  Biso   1.000  O
  O94      1.0000 0.23673  0.39018  0.95316  Biso   1.000  O
  O95      1.0000 0.67786  0.65919  0.81117  Biso   1.000  O
  O96      1.0000 0.67786  0.65919  0.68880  Biso   1.000  O
  O97      1.0000 0.85000  0.95369  0.51667  Biso   1.000  O
  O98      1.0000 0.97236  0.83132  0.51667  Biso   1.000  O
  O99      1.0000 0.97236  0.65919  0.68880  Biso   1.000  O
  O100     1.0000 0.85000  0.65919  0.81117  Biso   1.000  O
  O101     1.0000 0.67786  0.95369  0.51667  Biso   1.000  O
  O102     1.0000 0.67786  0.83132  0.51667  Biso   1.000  O
  O103     1.0000 0.85000  0.65919  0.51667  Biso   1.000  O
  O104     1.0000 0.97236  0.65919  0.51667  Biso   1.000  O
  O105     1.0000 0.67786  0.95369  0.68880  Biso   1.000  O
