data_image0
_cell_length_a       18.2016
_cell_length_b       18.2016
_cell_length_c       18.2016
_cell_angle_alpha    60
_cell_angle_beta     60
_cell_angle_gamma    60

_symmetry_space_group_name_H-M    "P 1"
_symmetry_int_tables_number       1

loop_
  _symmetry_equiv_pos_as_xyz
  'x, y, z'

loop_
  _atom_site_label
  _atom_site_occupancy
  _atom_site_fract_x
  _atom_site_fract_y
  _atom_site_fract_z
  _atom_site_thermal_displace_type
  _atom_site_B_iso_or_equiv
  _atom_site_type_symbol
  C1       1.0000 0.54338  0.36986  0.54338  Biso   1.000  C
  C2       1.0000 0.36986  0.54338  0.54338  Biso   1.000  C
  C3       1.0000 0.54338  0.54338  0.54338  Biso   1.000  C
  C4       1.0000 0.54338  0.54338  0.36986  Biso   1.000  C
  C5       1.0000 0.13029  0.95657  0.95657  Biso   1.000  C
  C6       1.0000 0.95657  0.13029  0.95657  Biso   1.000  C
  C7       1.0000 0.95657  0.95657  0.13029  Biso   1.000  C
  C8       1.0000 0.95657  0.95657  0.95657  Biso   1.000  C
  C9       1.0000 0.31480  0.09680  0.79420  Biso   1.000  C
  C10      1.0000 0.09680  0.31480  0.79420  Biso   1.000  C
  C11      1.0000 0.79420  0.79420  0.31480  Biso   1.000  C
  C12      1.0000 0.79420  0.79420  0.09680  Biso   1.000  C
  C13      1.0000 0.31480  0.79420  0.79420  Biso   1.000  C
  C14      1.0000 0.09680  0.79420  0.79420  Biso   1.000  C
  C15      1.0000 0.79420  0.31480  0.09680  Biso   1.000  C
  C16      1.0000 0.79420  0.09680  0.31480  Biso   1.000  C
  C17      1.0000 0.31480  0.79420  0.09680  Biso   1.000  C
  C18      1.0000 0.09680  0.79420  0.31480  Biso   1.000  C
  C19      1.0000 0.79420  0.09680  0.79420  Biso   1.000  C
  C20      1.0000 0.79420  0.31480  0.79420  Biso   1.000  C
  C21      1.0000 0.33050  0.21250  0.72850  Biso   1.000  C
  C22      1.0000 0.28810  0.15890  0.77650  Biso   1.000  C
  C23      1.0000 0.21250  0.33050  0.72850  Biso   1.000  C
  C24      1.0000 0.15890  0.28810  0.77650  Biso   1.000  C
  C25      1.0000 0.72850  0.72850  0.33050  Biso   1.000  C
  C26      1.0000 0.77650  0.77650  0.28810  Biso   1.000  C
  C27      1.0000 0.72850  0.72850  0.21250  Biso   1.000  C
  C28      1.0000 0.77650  0.77650  0.15890  Biso   1.000  C
  C29      1.0000 0.33050  0.72850  0.72850  Biso   1.000  C
  C30      1.0000 0.28810  0.77650  0.77650  Biso   1.000  C
  C31      1.0000 0.21250  0.72850  0.72850  Biso   1.000  C
  C32      1.0000 0.15890  0.77650  0.77650  Biso   1.000  C
  C33      1.0000 0.72850  0.33050  0.21250  Biso   1.000  C
  C34      1.0000 0.77650  0.28810  0.15890  Biso   1.000  C
  C35      1.0000 0.72850  0.21250  0.33050  Biso   1.000  C
  C36      1.0000 0.77650  0.15890  0.28810  Biso   1.000  C
  C37      1.0000 0.33050  0.72850  0.21250  Biso   1.000  C
  C38      1.0000 0.28810  0.77650  0.15890  Biso   1.000  C
  C39      1.0000 0.21250  0.72850  0.33050  Biso   1.000  C
  C40      1.0000 0.15890  0.77650  0.28810  Biso   1.000  C
  C41      1.0000 0.72850  0.21250  0.72850  Biso   1.000  C
  C42      1.0000 0.77650  0.15890  0.77650  Biso   1.000  C
  C43      1.0000 0.72850  0.33050  0.72850  Biso   1.000  C
  C44      1.0000 0.77650  0.28810  0.77650  Biso   1.000  C
  C45      1.0000 0.30490  0.30490  0.69510  Biso   1.000  C
  C46      1.0000 0.20070  0.20070  0.79930  Biso   1.000  C
  C47      1.0000 0.13930  0.13930  0.86070  Biso   1.000  C
  C48      1.0000 0.36170  0.36170  0.63830  Biso   1.000  C
  C49      1.0000 0.69510  0.69510  0.30490  Biso   1.000  C
  C50      1.0000 0.79930  0.79930  0.20070  Biso   1.000  C
  C51      1.0000 0.86070  0.86070  0.13930  Biso   1.000  C
  C52      1.0000 0.63830  0.63830  0.36170  Biso   1.000  C
  C53      1.0000 0.30490  0.69510  0.69510  Biso   1.000  C
  C54      1.0000 0.20070  0.79930  0.79930  Biso   1.000  C
  C55      1.0000 0.13930  0.86070  0.86070  Biso   1.000  C
  C56      1.0000 0.36170  0.63830  0.63830  Biso   1.000  C
  C57      1.0000 0.69510  0.30490  0.30490  Biso   1.000  C
  C58      1.0000 0.79930  0.20070  0.20070  Biso   1.000  C
  C59      1.0000 0.86070  0.13930  0.13930  Biso   1.000  C
  C60      1.0000 0.63830  0.36170  0.36170  Biso   1.000  C
  C61      1.0000 0.30490  0.69510  0.30490  Biso   1.000  C
  C62      1.0000 0.20070  0.79930  0.20070  Biso   1.000  C
  C63      1.0000 0.13930  0.86070  0.13930  Biso   1.000  C
  C64      1.0000 0.36170  0.63830  0.36170  Biso   1.000  C
  C65      1.0000 0.69510  0.30490  0.69510  Biso   1.000  C
  C66      1.0000 0.79930  0.20070  0.79930  Biso   1.000  C
  C67      1.0000 0.86070  0.13930  0.86070  Biso   1.000  C
  C68      1.0000 0.63830  0.36170  0.63830  Biso   1.000  C
  C69      1.0000 0.17850  0.05170  0.88490  Biso   1.000  C
  C70      1.0000 0.44150  0.32470  0.61690  Biso   1.000  C
  C71      1.0000 0.05170  0.17850  0.88490  Biso   1.000  C
  C72      1.0000 0.32470  0.44150  0.61690  Biso   1.000  C
  C73      1.0000 0.88490  0.88490  0.17850  Biso   1.000  C
  C74      1.0000 0.61690  0.61690  0.44150  Biso   1.000  C
  C75      1.0000 0.88490  0.88490  0.05170  Biso   1.000  C
  C76      1.0000 0.61690  0.61690  0.32470  Biso   1.000  C
  C77      1.0000 0.17850  0.88490  0.88490  Biso   1.000  C
  C78      1.0000 0.44150  0.61690  0.61690  Biso   1.000  C
  C79      1.0000 0.05170  0.88490  0.88490  Biso   1.000  C
  C80      1.0000 0.32470  0.61690  0.61690  Biso   1.000  C
  C81      1.0000 0.88490  0.17850  0.05170  Biso   1.000  C
  C82      1.0000 0.61690  0.44150  0.32470  Biso   1.000  C
  C83      1.0000 0.88490  0.05170  0.17850  Biso   1.000  C
  C84      1.0000 0.61690  0.32470  0.44150  Biso   1.000  C
  C85      1.0000 0.17850  0.88490  0.05170  Biso   1.000  C
  C86      1.0000 0.44150  0.61690  0.32470  Biso   1.000  C
  C87      1.0000 0.05170  0.88490  0.17850  Biso   1.000  C
  C88      1.0000 0.32470  0.61690  0.44150  Biso   1.000  C
  C89      1.0000 0.88490  0.05170  0.88490  Biso   1.000  C
  C90      1.0000 0.61690  0.32470  0.61690  Biso   1.000  C
  C91      1.0000 0.88490  0.17850  0.88490  Biso   1.000  C
  C92      1.0000 0.61690  0.44150  0.61690  Biso   1.000  C
  C93      1.0000 0.00000  0.00000  0.00000  Biso   1.000  C
  C94      1.0000 0.50000  0.50000  0.50000  Biso   1.000  C
  O1       1.0000 0.93419  0.57799  0.74017  Biso   1.000  O
  O2       1.0000 0.34514  0.98893  0.32920  Biso   1.000  O
  O3       1.0000 0.17029  0.16378  0.32920  Biso   1.000  O
  O4       1.0000 0.75934  0.75283  0.74017  Biso   1.000  O
  O5       1.0000 0.75915  0.57779  0.91515  Biso   1.000  O
  O6       1.0000 0.75928  0.57792  0.73995  Biso   1.000  O
  O7       1.0000 0.34534  0.16398  0.15422  Biso   1.000  O
  O8       1.0000 0.34521  0.16385  0.32941  Biso   1.000  O
  O9       1.0000 0.59617  0.93349  0.88195  Biso   1.000  O
  O10      1.0000 0.59305  0.71954  0.09646  Biso   1.000  O
  O11      1.0000 0.59980  0.93150  0.57860  Biso   1.000  O
  O12      1.0000 0.59929  0.71837  0.57329  Biso   1.000  O
  O13      1.0000 0.11396  0.71897  0.58041  Biso   1.000  O
  O14      1.0000 0.98964  0.32696  0.18741  Biso   1.000  O
  O15      1.0000 0.20358  0.33008  0.97291  Biso   1.000  O
  O16      1.0000 0.99163  0.32333  0.49077  Biso   1.000  O
  O17      1.0000 0.20476  0.32383  0.49608  Biso   1.000  O
  O18      1.0000 0.20415  0.80917  0.48896  Biso   1.000  O
  O19      1.0000 0.50831  0.80828  0.18741  Biso   1.000  O
  O20      1.0000 0.51144  0.02223  0.97291  Biso   1.000  O
  O21      1.0000 0.50468  0.81027  0.49077  Biso   1.000  O
  O22      1.0000 0.50519  0.02340  0.49608  Biso   1.000  O
  O23      1.0000 0.99053  0.02280  0.48896  Biso   1.000  O
  O24      1.0000 0.11484  0.41481  0.88195  Biso   1.000  O
  O25      1.0000 0.90090  0.41169  0.09646  Biso   1.000  O
  O26      1.0000 0.11286  0.41844  0.57860  Biso   1.000  O
  O27      1.0000 0.89972  0.41794  0.57329  Biso   1.000  O
  O28      1.0000 0.90033  0.93260  0.58041  Biso   1.000  O
  O29      1.0000 0.59747  0.41612  0.88125  Biso   1.000  O
  O30      1.0000 0.59475  0.41340  0.10037  Biso   1.000  O
  O31      1.0000 0.50701  0.32565  0.18812  Biso   1.000  O
  O32      1.0000 0.50973  0.32837  0.96900  Biso   1.000  O
  O33      1.0000 0.66435  0.76257  0.92076  Biso   1.000  O
  O34      1.0000 0.60539  0.81973  0.98133  Biso   1.000  O
  O35      1.0000 0.57922  0.90691  0.94443  Biso   1.000  O
  O36      1.0000 0.57740  0.78192  0.07079  Biso   1.000  O
  O37      1.0000 0.66477  0.76138  0.64338  Biso   1.000  O
  O38      1.0000 0.60872  0.81724  0.58632  Biso   1.000  O
  O39      1.0000 0.58085  0.90573  0.56105  Biso   1.000  O
  O40      1.0000 0.58044  0.78054  0.55764  Biso   1.000  O
  O41      1.0000 0.08758  0.78124  0.56085  Biso   1.000  O
  O42      1.0000 0.16056  0.25877  0.14861  Biso   1.000  O
  O43      1.0000 0.10340  0.31774  0.08803  Biso   1.000  O
  O44      1.0000 0.01621  0.34391  0.12494  Biso   1.000  O
  O45      1.0000 0.14121  0.34572  0.99858  Biso   1.000  O
  O46      1.0000 0.16174  0.25835  0.42599  Biso   1.000  O
  O47      1.0000 0.10589  0.31441  0.48305  Biso   1.000  O
  O48      1.0000 0.01740  0.34228  0.50832  Biso   1.000  O
  O49      1.0000 0.14258  0.34268  0.51173  Biso   1.000  O
  O50      1.0000 0.14188  0.83554  0.50852  Biso   1.000  O
  O51      1.0000 0.44013  0.97920  0.14861  Biso   1.000  O
  O52      1.0000 0.49910  0.92204  0.08803  Biso   1.000  O
  O53      1.0000 0.52526  0.83486  0.12494  Biso   1.000  O
  O54      1.0000 0.52708  0.95985  0.99858  Biso   1.000  O
  O55      1.0000 0.43971  0.98039  0.42599  Biso   1.000  O
  O56      1.0000 0.49576  0.92453  0.48305  Biso   1.000  O
  O57      1.0000 0.52363  0.83604  0.50832  Biso   1.000  O
  O58      1.0000 0.52404  0.96123  0.51173  Biso   1.000  O
  O59      1.0000 0.01690  0.96053  0.50852  Biso   1.000  O
  O60      1.0000 0.94393  0.48300  0.92076  Biso   1.000  O
  O61      1.0000 0.00108  0.42403  0.98133  Biso   1.000  O
  O62      1.0000 0.08827  0.39786  0.94443  Biso   1.000  O
  O63      1.0000 0.96327  0.39605  0.07079  Biso   1.000  O
  O64      1.0000 0.94274  0.48342  0.64338  Biso   1.000  O
  O65      1.0000 0.99860  0.42736  0.58632  Biso   1.000  O
  O66      1.0000 0.08709  0.39949  0.56105  Biso   1.000  O
  O67      1.0000 0.96190  0.39909  0.55764  Biso   1.000  O
  O68      1.0000 0.96260  0.90623  0.56085  Biso   1.000  O
  O69      1.0000 0.66265  0.48130  0.92738  Biso   1.000  O
  O70      1.0000 0.60639  0.42504  0.98053  Biso   1.000  O
  O71      1.0000 0.57972  0.39837  0.94343  Biso   1.000  O
  O72      1.0000 0.57731  0.39595  0.07279  Biso   1.000  O
  O73      1.0000 0.93983  0.75847  0.64860  Biso   1.000  O
  O74      1.0000 0.00020  0.81884  0.58642  Biso   1.000  O
  O75      1.0000 0.44183  0.26047  0.14199  Biso   1.000  O
  O76      1.0000 0.49809  0.31673  0.08884  Biso   1.000  O
  O77      1.0000 0.52476  0.34340  0.12594  Biso   1.000  O
  O78      1.0000 0.52717  0.34582  0.99658  Biso   1.000  O
  O79      1.0000 0.16465  0.98329  0.42077  Biso   1.000  O
  O80      1.0000 0.10429  0.92292  0.48295  Biso   1.000  O
  O81      1.0000 0.68451  0.67663  0.96439  Biso   1.000  O
  O82      1.0000 0.68692  0.80319  0.83783  Biso   1.000  O
  O83      1.0000 0.68422  0.67554  0.66875  Biso   1.000  O
  O84      1.0000 0.68643  0.80169  0.66595  Biso   1.000  O
  O85      1.0000 0.98234  0.67524  0.66825  Biso   1.000  O
  O86      1.0000 0.24650  0.23862  0.10498  Biso   1.000  O
  O87      1.0000 0.11994  0.23620  0.23154  Biso   1.000  O
  O88      1.0000 0.24758  0.23890  0.40062  Biso   1.000  O
  O89      1.0000 0.12143  0.23669  0.40342  Biso   1.000  O
  O90      1.0000 0.24789  0.94078  0.40112  Biso   1.000  O
  O91      1.0000 0.41998  0.06514  0.10498  Biso   1.000  O
  O92      1.0000 0.41756  0.93858  0.23154  Biso   1.000  O
  O93      1.0000 0.42026  0.06622  0.40062  Biso   1.000  O
  O94      1.0000 0.41805  0.94008  0.40342  Biso   1.000  O
  O95      1.0000 0.12214  0.06653  0.40112  Biso   1.000  O
  O96      1.0000 0.85799  0.50315  0.96439  Biso   1.000  O
  O97      1.0000 0.98454  0.50557  0.83783  Biso   1.000  O
  O98      1.0000 0.85690  0.50287  0.66875  Biso   1.000  O
  O99      1.0000 0.98305  0.50507  0.66595  Biso   1.000  O
  O100     1.0000 0.85660  0.80099  0.66825  Biso   1.000  O
  O101     1.0000 0.80284  0.62149  0.78418  Biso   1.000  O
  O102     1.0000 0.68591  0.50456  0.96338  Biso   1.000  O
  O103     1.0000 0.68431  0.50296  0.84254  Biso   1.000  O
  O104     1.0000 0.30164  0.12028  0.28519  Biso   1.000  O
  O105     1.0000 0.41857  0.23721  0.10599  Biso   1.000  O
