data_image0
_cell_length_a       18.2016
_cell_length_b       18.2016
_cell_length_c       18.2016
_cell_angle_alpha    60
_cell_angle_beta     60
_cell_angle_gamma    60

_symmetry_space_group_name_H-M    "P 1"
_symmetry_int_tables_number       1

loop_
  _symmetry_equiv_pos_as_xyz
  'x, y, z'

loop_
  _atom_site_label
  _atom_site_occupancy
  _atom_site_fract_x
  _atom_site_fract_y
  _atom_site_fract_z
  _atom_site_thermal_displace_type
  _atom_site_B_iso_or_equiv
  _atom_site_type_symbol
  Zn1      1.0000 0.54338  0.36986  0.54338  Biso   1.000  Zn
  Zn2      1.0000 0.36986  0.54338  0.54338  Biso   1.000  Zn
  Zn3      1.0000 0.54338  0.54338  0.54338  Biso   1.000  Zn
  Zn4      1.0000 0.54338  0.54338  0.36986  Biso   1.000  Zn
  Zn5      1.0000 0.13029  0.95657  0.95657  Biso   1.000  Zn
  Zn6      1.0000 0.95657  0.13029  0.95657  Biso   1.000  Zn
  Zn7      1.0000 0.95657  0.95657  0.13029  Biso   1.000  Zn
  Zn8      1.0000 0.95657  0.95657  0.95657  Biso   1.000  Zn
  H1       1.0000 0.31480  0.09680  0.79420  Biso   1.000  H
  H2       1.0000 0.09680  0.31480  0.79420  Biso   1.000  H
  H3       1.0000 0.79420  0.79420  0.31480  Biso   1.000  H
  H4       1.0000 0.79420  0.79420  0.09680  Biso   1.000  H
  H5       1.0000 0.31480  0.79420  0.79420  Biso   1.000  H
  H6       1.0000 0.09680  0.79420  0.79420  Biso   1.000  H
  H7       1.0000 0.79420  0.31480  0.09680  Biso   1.000  H
  H8       1.0000 0.79420  0.09680  0.31480  Biso   1.000  H
  H9       1.0000 0.31480  0.79420  0.09680  Biso   1.000  H
  H10      1.0000 0.09680  0.79420  0.31480  Biso   1.000  H
  H11      1.0000 0.79420  0.09680  0.79420  Biso   1.000  H
  H12      1.0000 0.79420  0.31480  0.79420  Biso   1.000  H
  C1       1.0000 0.33050  0.21250  0.72850  Biso   1.000  C
  C2       1.0000 0.28810  0.15890  0.77650  Biso   1.000  C
  C3       1.0000 0.21250  0.33050  0.72850  Biso   1.000  C
  C4       1.0000 0.15890  0.28810  0.77650  Biso   1.000  C
  C5       1.0000 0.72850  0.72850  0.33050  Biso   1.000  C
  C6       1.0000 0.77650  0.77650  0.28810  Biso   1.000  C
  C7       1.0000 0.72850  0.72850  0.21250  Biso   1.000  C
  C8       1.0000 0.77650  0.77650  0.15890  Biso   1.000  C
  C9       1.0000 0.33050  0.72850  0.72850  Biso   1.000  C
  C10      1.0000 0.28810  0.77650  0.77650  Biso   1.000  C
  C11      1.0000 0.21250  0.72850  0.72850  Biso   1.000  C
  C12      1.0000 0.15890  0.77650  0.77650  Biso   1.000  C
  C13      1.0000 0.72850  0.33050  0.21250  Biso   1.000  C
  C14      1.0000 0.77650  0.28810  0.15890  Biso   1.000  C
  C15      1.0000 0.72850  0.21250  0.33050  Biso   1.000  C
  C16      1.0000 0.77650  0.15890  0.28810  Biso   1.000  C
  C17      1.0000 0.33050  0.72850  0.21250  Biso   1.000  C
  C18      1.0000 0.28810  0.77650  0.15890  Biso   1.000  C
  C19      1.0000 0.21250  0.72850  0.33050  Biso   1.000  C
  C20      1.0000 0.15890  0.77650  0.28810  Biso   1.000  C
  C21      1.0000 0.72850  0.21250  0.72850  Biso   1.000  C
  C22      1.0000 0.77650  0.15890  0.77650  Biso   1.000  C
  C23      1.0000 0.72850  0.33050  0.72850  Biso   1.000  C
  C24      1.0000 0.77650  0.28810  0.77650  Biso   1.000  C
  C25      1.0000 0.30490  0.30490  0.69510  Biso   1.000  C
  C26      1.0000 0.20070  0.20070  0.79930  Biso   1.000  C
  C27      1.0000 0.13930  0.13930  0.86070  Biso   1.000  C
  C28      1.0000 0.36170  0.36170  0.63830  Biso   1.000  C
  C29      1.0000 0.69510  0.69510  0.30490  Biso   1.000  C
  C30      1.0000 0.79930  0.79930  0.20070  Biso   1.000  C
  C31      1.0000 0.86070  0.86070  0.13930  Biso   1.000  C
  C32      1.0000 0.63830  0.63830  0.36170  Biso   1.000  C
  C33      1.0000 0.30490  0.69510  0.69510  Biso   1.000  C
  C34      1.0000 0.20070  0.79930  0.79930  Biso   1.000  C
  C35      1.0000 0.13930  0.86070  0.86070  Biso   1.000  C
  C36      1.0000 0.36170  0.63830  0.63830  Biso   1.000  C
  C37      1.0000 0.69510  0.30490  0.30490  Biso   1.000  C
  C38      1.0000 0.79930  0.20070  0.20070  Biso   1.000  C
  C39      1.0000 0.86070  0.13930  0.13930  Biso   1.000  C
  C40      1.0000 0.63830  0.36170  0.36170  Biso   1.000  C
  C41      1.0000 0.30490  0.69510  0.30490  Biso   1.000  C
  C42      1.0000 0.20070  0.79930  0.20070  Biso   1.000  C
  C43      1.0000 0.13930  0.86070  0.13930  Biso   1.000  C
  C44      1.0000 0.36170  0.63830  0.36170  Biso   1.000  C
  C45      1.0000 0.69510  0.30490  0.69510  Biso   1.000  C
  C46      1.0000 0.79930  0.20070  0.79930  Biso   1.000  C
  C47      1.0000 0.86070  0.13930  0.86070  Biso   1.000  C
  C48      1.0000 0.63830  0.36170  0.63830  Biso   1.000  C
  O1       1.0000 0.17850  0.05170  0.88490  Biso   1.000  O
  O2       1.0000 0.44150  0.32470  0.61690  Biso   1.000  O
  O3       1.0000 0.05170  0.17850  0.88490  Biso   1.000  O
  O4       1.0000 0.32470  0.44150  0.61690  Biso   1.000  O
  O5       1.0000 0.88490  0.88490  0.17850  Biso   1.000  O
  O6       1.0000 0.61690  0.61690  0.44150  Biso   1.000  O
  O7       1.0000 0.88490  0.88490  0.05170  Biso   1.000  O
  O8       1.0000 0.61690  0.61690  0.32470  Biso   1.000  O
  O9       1.0000 0.17850  0.88490  0.88490  Biso   1.000  O
  O10      1.0000 0.44150  0.61690  0.61690  Biso   1.000  O
  O11      1.0000 0.05170  0.88490  0.88490  Biso   1.000  O
  O12      1.0000 0.32470  0.61690  0.61690  Biso   1.000  O
  O13      1.0000 0.88490  0.17850  0.05170  Biso   1.000  O
  O14      1.0000 0.61690  0.44150  0.32470  Biso   1.000  O
  O15      1.0000 0.88490  0.05170  0.17850  Biso   1.000  O
  O16      1.0000 0.61690  0.32470  0.44150  Biso   1.000  O
  O17      1.0000 0.17850  0.88490  0.05170  Biso   1.000  O
  O18      1.0000 0.44150  0.61690  0.32470  Biso   1.000  O
  O19      1.0000 0.05170  0.88490  0.17850  Biso   1.000  O
  O20      1.0000 0.32470  0.61690  0.44150  Biso   1.000  O
  O21      1.0000 0.88490  0.05170  0.88490  Biso   1.000  O
  O22      1.0000 0.61690  0.32470  0.61690  Biso   1.000  O
  O23      1.0000 0.88490  0.17850  0.88490  Biso   1.000  O
  O24      1.0000 0.61690  0.44150  0.61690  Biso   1.000  O
  O25      1.0000 0.00000  0.00000  0.00000  Biso   1.000  O
  O26      1.0000 0.50000  0.50000  0.50000  Biso   1.000  O
  Zn9      1.0000 0.93419  0.57799  0.74017  Biso   1.000  Zn
  Zn10     1.0000 0.76067  0.57799  0.91368  Biso   1.000  Zn
  Zn11     1.0000 0.76067  0.75151  0.74017  Biso   1.000  Zn
  Zn12     1.0000 0.76067  0.57799  0.74017  Biso   1.000  Zn
  Zn13     1.0000 0.16972  0.16615  0.32832  Biso   1.000  Zn
  Zn14     1.0000 0.34324  0.16615  0.15481  Biso   1.000  Zn
  Zn15     1.0000 0.34324  0.16615  0.32832  Biso   1.000  Zn
  Zn16     1.0000 0.34324  0.99263  0.32832  Biso   1.000  Zn
  H13      1.0000 0.11977  0.41714  0.87628  Biso   1.000  H
  H14      1.0000 0.89400  0.41714  0.10205  Biso   1.000  H
  H15      1.0000 0.59703  0.93988  0.57932  Biso   1.000  H
  H16      1.0000 0.59703  0.71411  0.57932  Biso   1.000  H
  H17      1.0000 0.59703  0.71411  0.10205  Biso   1.000  H
  H18      1.0000 0.59703  0.93988  0.87628  Biso   1.000  H
  H19      1.0000 0.11977  0.41714  0.57932  Biso   1.000  H
  H20      1.0000 0.89400  0.41714  0.57932  Biso   1.000  H
  H21      1.0000 0.89400  0.93988  0.57932  Biso   1.000  H
  H22      1.0000 0.11977  0.71411  0.57932  Biso   1.000  H
  H23      1.0000 0.59703  0.41714  0.10205  Biso   1.000  H
  H24      1.0000 0.59703  0.41714  0.87628  Biso   1.000  H
  H25      1.0000 0.98414  0.32700  0.19220  Biso   1.000  H
  H26      1.0000 0.20991  0.32700  0.96643  Biso   1.000  H
  H27      1.0000 0.50688  0.03003  0.48917  Biso   1.000  H
  H28      1.0000 0.50688  0.80426  0.48917  Biso   1.000  H
  H29      1.0000 0.50688  0.32700  0.96643  Biso   1.000  H
  H30      1.0000 0.50688  0.32700  0.19220  Biso   1.000  H
  H31      1.0000 0.98414  0.03003  0.48917  Biso   1.000  H
  H32      1.0000 0.20991  0.80426  0.48917  Biso   1.000  H
  H33      1.0000 0.20991  0.32700  0.48917  Biso   1.000  H
  H34      1.0000 0.98414  0.32700  0.48917  Biso   1.000  H
  H35      1.0000 0.50688  0.03003  0.96643  Biso   1.000  H
  H36      1.0000 0.50688  0.80426  0.19220  Biso   1.000  H
  C49      1.0000 0.09314  0.39830  0.94060  Biso   1.000  C
  C50      1.0000 0.95832  0.39830  0.07543  Biso   1.000  C
  C51      1.0000 0.57818  0.91326  0.56047  Biso   1.000  C
  C52      1.0000 0.57818  0.77843  0.56047  Biso   1.000  C
  C53      1.0000 0.57818  0.77843  0.07543  Biso   1.000  C
  C54      1.0000 0.57818  0.91326  0.94060  Biso   1.000  C
  C55      1.0000 0.09314  0.39830  0.56047  Biso   1.000  C
  C56      1.0000 0.95832  0.39830  0.56047  Biso   1.000  C
  C57      1.0000 0.95832  0.91326  0.56047  Biso   1.000  C
  C58      1.0000 0.09314  0.77843  0.56047  Biso   1.000  C
  C59      1.0000 0.57818  0.39830  0.07543  Biso   1.000  C
  C60      1.0000 0.57818  0.39830  0.94060  Biso   1.000  C
  C61      1.0000 0.01077  0.34584  0.12788  Biso   1.000  C
  C62      1.0000 0.14560  0.34584  0.99306  Biso   1.000  C
  C63      1.0000 0.52573  0.96571  0.50802  Biso   1.000  C
  C64      1.0000 0.52573  0.83088  0.50802  Biso   1.000  C
  C65      1.0000 0.52573  0.34584  0.99306  Biso   1.000  C
  C66      1.0000 0.52573  0.34584  0.12788  Biso   1.000  C
  C67      1.0000 0.01077  0.96571  0.50802  Biso   1.000  C
  C68      1.0000 0.14560  0.83088  0.50802  Biso   1.000  C
  C69      1.0000 0.14559  0.34584  0.50802  Biso   1.000  C
  C70      1.0000 0.01077  0.34584  0.50802  Biso   1.000  C
  C71      1.0000 0.52573  0.96571  0.99306  Biso   1.000  C
  C72      1.0000 0.52573  0.83088  0.12788  Biso   1.000  C
  C73      1.0000 0.94316  0.48226  0.92265  Biso   1.000  C
  C74      1.0000 0.99970  0.42572  0.97920  Biso   1.000  C
  C75      1.0000 0.66494  0.76048  0.64443  Biso   1.000  C
  C76      1.0000 0.60840  0.81702  0.58789  Biso   1.000  C
  C77      1.0000 0.66494  0.76048  0.92265  Biso   1.000  C
  C78      1.0000 0.60840  0.81702  0.97920  Biso   1.000  C
  C79      1.0000 0.94316  0.48226  0.64443  Biso   1.000  C
  C80      1.0000 0.99970  0.42572  0.58789  Biso   1.000  C
  C81      1.0000 0.94316  0.76048  0.64443  Biso   1.000  C
  C82      1.0000 0.99970  0.81702  0.58789  Biso   1.000  C
  C83      1.0000 0.66494  0.48226  0.92265  Biso   1.000  C
  C84      1.0000 0.60840  0.42572  0.97920  Biso   1.000  C
  C85      1.0000 0.16075  0.26188  0.14583  Biso   1.000  C
  C86      1.0000 0.10421  0.31842  0.08929  Biso   1.000  C
  C87      1.0000 0.43897  0.98366  0.42405  Biso   1.000  C
  C88      1.0000 0.49551  0.92712  0.48059  Biso   1.000  C
  C89      1.0000 0.43897  0.26188  0.14583  Biso   1.000  C
  C90      1.0000 0.49551  0.31842  0.08929  Biso   1.000  C
  C91      1.0000 0.16075  0.98366  0.42405  Biso   1.000  C
  C92      1.0000 0.10421  0.92712  0.48059  Biso   1.000  C
  C93      1.0000 0.16075  0.26188  0.42405  Biso   1.000  C
  C94      1.0000 0.10421  0.31842  0.48059  Biso   1.000  C
  C95      1.0000 0.43897  0.98366  0.14583  Biso   1.000  C
  C96      1.0000 0.49551  0.92712  0.08929  Biso   1.000  C
  O27      1.0000 0.80405  0.62137  0.78354  Biso   1.000  O
  O28      1.0000 0.29986  0.12277  0.28494  Biso   1.000  O
  O29      1.0000 0.98325  0.50559  0.83590  Biso   1.000  O
  O30      1.0000 0.85641  0.50559  0.96274  Biso   1.000  O
  O31      1.0000 0.68828  0.80057  0.66777  Biso   1.000  O
  O32      1.0000 0.68828  0.67372  0.66777  Biso   1.000  O
  O33      1.0000 0.68828  0.67372  0.96274  Biso   1.000  O
  O34      1.0000 0.68828  0.80057  0.83590  Biso   1.000  O
  O35      1.0000 0.98325  0.50559  0.66777  Biso   1.000  O
  O36      1.0000 0.85641  0.50559  0.66777  Biso   1.000  O
  O37      1.0000 0.85641  0.80057  0.66777  Biso   1.000  O
  O38      1.0000 0.98325  0.67372  0.66777  Biso   1.000  O
  O39      1.0000 0.68828  0.50559  0.96274  Biso   1.000  O
  O40      1.0000 0.68828  0.50559  0.83590  Biso   1.000  O
  O41      1.0000 0.12066  0.23854  0.23259  Biso   1.000  O
  O42      1.0000 0.24751  0.23854  0.10574  Biso   1.000  O
  O43      1.0000 0.41563  0.07042  0.40072  Biso   1.000  O
  O44      1.0000 0.41563  0.94357  0.40072  Biso   1.000  O
  O45      1.0000 0.41563  0.23854  0.10574  Biso   1.000  O
  O46      1.0000 0.41563  0.23854  0.23259  Biso   1.000  O
  O47      1.0000 0.12066  0.07042  0.40072  Biso   1.000  O
  O48      1.0000 0.24751  0.94357  0.40072  Biso   1.000  O
  O49      1.0000 0.24751  0.23854  0.40072  Biso   1.000  O
  O50      1.0000 0.12066  0.23854  0.40072  Biso   1.000  O
  O51      1.0000 0.41563  0.07042  0.10574  Biso   1.000  O
