data_image0
_cell_length_a       18.2016
_cell_length_b       18.2016
_cell_length_c       18.2016
_cell_angle_alpha    60
_cell_angle_beta     60
_cell_angle_gamma    60

_symmetry_space_group_name_H-M    "P 1"
_symmetry_int_tables_number       1

loop_
  _symmetry_equiv_pos_as_xyz
  'x, y, z'

loop_
  _atom_site_label
  _atom_site_occupancy
  _atom_site_fract_x
  _atom_site_fract_y
  _atom_site_fract_z
  _atom_site_thermal_displace_type
  _atom_site_B_iso_or_equiv
  _atom_site_type_symbol
  C1       1.0000 0.54338  0.36986  0.54338  Biso   1.000  C
  C2       1.0000 0.36986  0.54338  0.54338  Biso   1.000  C
  C3       1.0000 0.54338  0.54338  0.54338  Biso   1.000  C
  C4       1.0000 0.54338  0.54338  0.36986  Biso   1.000  C
  C5       1.0000 0.13029  0.95657  0.95657  Biso   1.000  C
  C6       1.0000 0.95657  0.13029  0.95657  Biso   1.000  C
  C7       1.0000 0.95657  0.95657  0.13029  Biso   1.000  C
  C8       1.0000 0.95657  0.95657  0.95657  Biso   1.000  C
  C9       1.0000 0.31480  0.09680  0.79420  Biso   1.000  C
  C10      1.0000 0.09680  0.31480  0.79420  Biso   1.000  C
  C11      1.0000 0.79420  0.79420  0.31480  Biso   1.000  C
  C12      1.0000 0.79420  0.79420  0.09680  Biso   1.000  C
  C13      1.0000 0.31480  0.79420  0.79420  Biso   1.000  C
  C14      1.0000 0.09680  0.79420  0.79420  Biso   1.000  C
  C15      1.0000 0.79420  0.31480  0.09680  Biso   1.000  C
  C16      1.0000 0.79420  0.09680  0.31480  Biso   1.000  C
  C17      1.0000 0.31480  0.79420  0.09680  Biso   1.000  C
  C18      1.0000 0.09680  0.79420  0.31480  Biso   1.000  C
  C19      1.0000 0.79420  0.09680  0.79420  Biso   1.000  C
  C20      1.0000 0.79420  0.31480  0.79420  Biso   1.000  C
  C21      1.0000 0.33050  0.21250  0.72850  Biso   1.000  C
  C22      1.0000 0.28810  0.15890  0.77650  Biso   1.000  C
  C23      1.0000 0.21250  0.33050  0.72850  Biso   1.000  C
  C24      1.0000 0.15890  0.28810  0.77650  Biso   1.000  C
  C25      1.0000 0.72850  0.72850  0.33050  Biso   1.000  C
  C26      1.0000 0.77650  0.77650  0.28810  Biso   1.000  C
  C27      1.0000 0.72850  0.72850  0.21250  Biso   1.000  C
  C28      1.0000 0.77650  0.77650  0.15890  Biso   1.000  C
  C29      1.0000 0.33050  0.72850  0.72850  Biso   1.000  C
  C30      1.0000 0.28810  0.77650  0.77650  Biso   1.000  C
  C31      1.0000 0.21250  0.72850  0.72850  Biso   1.000  C
  C32      1.0000 0.15890  0.77650  0.77650  Biso   1.000  C
  C33      1.0000 0.72850  0.33050  0.21250  Biso   1.000  C
  C34      1.0000 0.77650  0.28810  0.15890  Biso   1.000  C
  C35      1.0000 0.72850  0.21250  0.33050  Biso   1.000  C
  C36      1.0000 0.77650  0.15890  0.28810  Biso   1.000  C
  C37      1.0000 0.33050  0.72850  0.21250  Biso   1.000  C
  C38      1.0000 0.28810  0.77650  0.15890  Biso   1.000  C
  C39      1.0000 0.21250  0.72850  0.33050  Biso   1.000  C
  C40      1.0000 0.15890  0.77650  0.28810  Biso   1.000  C
  C41      1.0000 0.72850  0.21250  0.72850  Biso   1.000  C
  C42      1.0000 0.77650  0.15890  0.77650  Biso   1.000  C
  C43      1.0000 0.72850  0.33050  0.72850  Biso   1.000  C
  C44      1.0000 0.77650  0.28810  0.77650  Biso   1.000  C
  C45      1.0000 0.30490  0.30490  0.69510  Biso   1.000  C
  C46      1.0000 0.20070  0.20070  0.79930  Biso   1.000  C
  C47      1.0000 0.13930  0.13930  0.86070  Biso   1.000  C
  C48      1.0000 0.36170  0.36170  0.63830  Biso   1.000  C
  C49      1.0000 0.69510  0.69510  0.30490  Biso   1.000  C
  C50      1.0000 0.79930  0.79930  0.20070  Biso   1.000  C
  C51      1.0000 0.86070  0.86070  0.13930  Biso   1.000  C
  C52      1.0000 0.63830  0.63830  0.36170  Biso   1.000  C
  C53      1.0000 0.30490  0.69510  0.69510  Biso   1.000  C
  C54      1.0000 0.20070  0.79930  0.79930  Biso   1.000  C
  C55      1.0000 0.13930  0.86070  0.86070  Biso   1.000  C
  C56      1.0000 0.36170  0.63830  0.63830  Biso   1.000  C
  C57      1.0000 0.69510  0.30490  0.30490  Biso   1.000  C
  C58      1.0000 0.79930  0.20070  0.20070  Biso   1.000  C
  C59      1.0000 0.86070  0.13930  0.13930  Biso   1.000  C
  C60      1.0000 0.63830  0.36170  0.36170  Biso   1.000  C
  C61      1.0000 0.30490  0.69510  0.30490  Biso   1.000  C
  C62      1.0000 0.20070  0.79930  0.20070  Biso   1.000  C
  C63      1.0000 0.13930  0.86070  0.13930  Biso   1.000  C
  C64      1.0000 0.36170  0.63830  0.36170  Biso   1.000  C
  C65      1.0000 0.69510  0.30490  0.69510  Biso   1.000  C
  C66      1.0000 0.79930  0.20070  0.79930  Biso   1.000  C
  C67      1.0000 0.86070  0.13930  0.86070  Biso   1.000  C
  C68      1.0000 0.63830  0.36170  0.63830  Biso   1.000  C
  C69      1.0000 0.17850  0.05170  0.88490  Biso   1.000  C
  C70      1.0000 0.44150  0.32470  0.61690  Biso   1.000  C
  C71      1.0000 0.05170  0.17850  0.88490  Biso   1.000  C
  C72      1.0000 0.32470  0.44150  0.61690  Biso   1.000  C
  C73      1.0000 0.88490  0.88490  0.17850  Biso   1.000  C
  C74      1.0000 0.61690  0.61690  0.44150  Biso   1.000  C
  C75      1.0000 0.88490  0.88490  0.05170  Biso   1.000  C
  C76      1.0000 0.61690  0.61690  0.32470  Biso   1.000  C
  C77      1.0000 0.17850  0.88490  0.88490  Biso   1.000  C
  C78      1.0000 0.44150  0.61690  0.61690  Biso   1.000  C
  C79      1.0000 0.05170  0.88490  0.88490  Biso   1.000  C
  C80      1.0000 0.32470  0.61690  0.61690  Biso   1.000  C
  C81      1.0000 0.88490  0.17850  0.05170  Biso   1.000  C
  C82      1.0000 0.61690  0.44150  0.32470  Biso   1.000  C
  C83      1.0000 0.88490  0.05170  0.17850  Biso   1.000  C
  C84      1.0000 0.61690  0.32470  0.44150  Biso   1.000  C
  C85      1.0000 0.17850  0.88490  0.05170  Biso   1.000  C
  C86      1.0000 0.44150  0.61690  0.32470  Biso   1.000  C
  C87      1.0000 0.05170  0.88490  0.17850  Biso   1.000  C
  C88      1.0000 0.32470  0.61690  0.44150  Biso   1.000  C
  C89      1.0000 0.88490  0.05170  0.88490  Biso   1.000  C
  C90      1.0000 0.61690  0.32470  0.61690  Biso   1.000  C
  C91      1.0000 0.88490  0.17850  0.88490  Biso   1.000  C
  C92      1.0000 0.61690  0.44150  0.61690  Biso   1.000  C
  C93      1.0000 0.00000  0.00000  0.00000  Biso   1.000  C
  C94      1.0000 0.50000  0.50000  0.50000  Biso   1.000  C
  O1       1.0000 0.31888  0.01473  0.33644  Biso   1.000  O
  O2       1.0000 0.31888  0.18946  0.33644  Biso   1.000  O
  O3       1.0000 0.14415  0.18946  0.33644  Biso   1.000  O
  O4       1.0000 0.31888  0.18946  0.16172  Biso   1.000  O
  O5       1.0000 0.74044  0.59913  0.74611  Biso   1.000  O
  O6       1.0000 0.74044  0.77385  0.74611  Biso   1.000  O
  O7       1.0000 0.91516  0.59913  0.74611  Biso   1.000  O
  O8       1.0000 0.74044  0.59913  0.92083  Biso   1.000  O
  O9       1.0000 0.18054  0.82820  0.49888  Biso   1.000  O
  O10      1.0000 0.48132  0.35190  0.19810  Biso   1.000  O
  O11      1.0000 0.95762  0.05112  0.49888  Biso   1.000  O
  O12      1.0000 0.48132  0.35190  0.97518  Biso   1.000  O
  O13      1.0000 0.95762  0.35190  0.19810  Biso   1.000  O
  O14      1.0000 0.48132  0.05112  0.49888  Biso   1.000  O
  O15      1.0000 0.18054  0.35190  0.97518  Biso   1.000  O
  O16      1.0000 0.48132  0.82820  0.49888  Biso   1.000  O
  O17      1.0000 0.48132  0.05112  0.97518  Biso   1.000  O
  O18      1.0000 0.18054  0.35190  0.49888  Biso   1.000  O
  O19      1.0000 0.48132  0.82820  0.19810  Biso   1.000  O
  O20      1.0000 0.95762  0.35190  0.49888  Biso   1.000  O
  O21      1.0000 0.87877  0.43669  0.58367  Biso   1.000  O
  O22      1.0000 0.57800  0.96038  0.88445  Biso   1.000  O
  O23      1.0000 0.10169  0.43669  0.58367  Biso   1.000  O
  O24      1.0000 0.57800  0.73746  0.10736  Biso   1.000  O
  O25      1.0000 0.10169  0.43669  0.88445  Biso   1.000  O
  O26      1.0000 0.57800  0.96038  0.58367  Biso   1.000  O
  O27      1.0000 0.87877  0.43669  0.10736  Biso   1.000  O
  O28      1.0000 0.57800  0.73746  0.58367  Biso   1.000  O
  O29      1.0000 0.57800  0.43669  0.10737  Biso   1.000  O
  O30      1.0000 0.87877  0.96038  0.58367  Biso   1.000  O
  O31      1.0000 0.57800  0.43669  0.88445  Biso   1.000  O
  O32      1.0000 0.10169  0.73746  0.58367  Biso   1.000  O
  O33      1.0000 0.11695  0.85491  0.51732  Biso   1.000  O
  O34      1.0000 0.49976  0.37033  0.13452  Biso   1.000  O
  O35      1.0000 0.98433  0.98753  0.51732  Biso   1.000  O
  O36      1.0000 0.49976  0.37033  0.00189  Biso   1.000  O
  O37      1.0000 0.98433  0.37033  0.13452  Biso   1.000  O
  O38      1.0000 0.49976  0.98753  0.51732  Biso   1.000  O
  O39      1.0000 0.11695  0.37033  0.00189  Biso   1.000  O
  O40      1.0000 0.49976  0.85491  0.51732  Biso   1.000  O
  O41      1.0000 0.49976  0.98753  0.00189  Biso   1.000  O
  O42      1.0000 0.11695  0.37033  0.51732  Biso   1.000  O
  O43      1.0000 0.49976  0.85491  0.13452  Biso   1.000  O
  O44      1.0000 0.98433  0.37033  0.51732  Biso   1.000  O
  O45      1.0000 0.94236  0.41825  0.56523  Biso   1.000  O
  O46      1.0000 0.55956  0.93367  0.94803  Biso   1.000  O
  O47      1.0000 0.07498  0.41825  0.56523  Biso   1.000  O
  O48      1.0000 0.55956  0.80105  0.08066  Biso   1.000  O
  O49      1.0000 0.07498  0.41825  0.94803  Biso   1.000  O
  O50      1.0000 0.55956  0.93367  0.56523  Biso   1.000  O
  O51      1.0000 0.94236  0.41825  0.08066  Biso   1.000  O
  O52      1.0000 0.55956  0.80105  0.56523  Biso   1.000  O
  O53      1.0000 0.55956  0.41825  0.08066  Biso   1.000  O
  O54      1.0000 0.94236  0.93367  0.56523  Biso   1.000  O
  O55      1.0000 0.55956  0.41825  0.94803  Biso   1.000  O
  O56      1.0000 0.07498  0.80105  0.56523  Biso   1.000  O
  O57      1.0000 0.13592  0.00649  0.43204  Biso   1.000  O
  O58      1.0000 0.07776  0.94834  0.49020  Biso   1.000  O
  O59      1.0000 0.41448  0.28506  0.15348  Biso   1.000  O
  O60      1.0000 0.47263  0.34321  0.09532  Biso   1.000  O
  O61      1.0000 0.13592  0.28506  0.15348  Biso   1.000  O
  O62      1.0000 0.07776  0.34321  0.09532  Biso   1.000  O
  O63      1.0000 0.41448  0.00649  0.43204  Biso   1.000  O
  O64      1.0000 0.47263  0.94834  0.49020  Biso   1.000  O
  O65      1.0000 0.41448  0.00649  0.15348  Biso   1.000  O
  O66      1.0000 0.47263  0.94834  0.09532  Biso   1.000  O
  O67      1.0000 0.13592  0.28506  0.43204  Biso   1.000  O
  O68      1.0000 0.07776  0.34321  0.49020  Biso   1.000  O
  O69      1.0000 0.92340  0.50352  0.65051  Biso   1.000  O
  O70      1.0000 0.98155  0.44537  0.59235  Biso   1.000  O
  O71      1.0000 0.64483  0.78209  0.92907  Biso   1.000  O
  O72      1.0000 0.58668  0.84024  0.98723  Biso   1.000  O
  O73      1.0000 0.92340  0.50352  0.92907  Biso   1.000  O
  O74      1.0000 0.98155  0.44537  0.98723  Biso   1.000  O
  O75      1.0000 0.64483  0.78209  0.65051  Biso   1.000  O
  O76      1.0000 0.58668  0.84024  0.59235  Biso   1.000  O
  O77      1.0000 0.64483  0.50352  0.92907  Biso   1.000  O
  O78      1.0000 0.58668  0.44537  0.98723  Biso   1.000  O
  O79      1.0000 0.92340  0.78209  0.65051  Biso   1.000  O
  O80      1.0000 0.98155  0.84024  0.59235  Biso   1.000  O
  O81      1.0000 0.27520  0.14578  0.29276  Biso   1.000  O
  O82      1.0000 0.78412  0.64280  0.78979  Biso   1.000  O
  O83      1.0000 0.21997  0.96706  0.40973  Biso   1.000  O
  O84      1.0000 0.39217  0.26275  0.23753  Biso   1.000  O
  O85      1.0000 0.09648  0.09055  0.40973  Biso   1.000  O
  O86      1.0000 0.39217  0.26275  0.11404  Biso   1.000  O
  O87      1.0000 0.09648  0.26275  0.23753  Biso   1.000  O
  O88      1.0000 0.39217  0.09055  0.40973  Biso   1.000  O
  O89      1.0000 0.21997  0.26275  0.11404  Biso   1.000  O
  O90      1.0000 0.39217  0.96706  0.40973  Biso   1.000  O
  O91      1.0000 0.39217  0.09055  0.11404  Biso   1.000  O
  O92      1.0000 0.21997  0.26275  0.40973  Biso   1.000  O
  O93      1.0000 0.39217  0.96706  0.23753  Biso   1.000  O
  O94      1.0000 0.09648  0.26275  0.40973  Biso   1.000  O
  O95      1.0000 0.83934  0.52583  0.67282  Biso   1.000  O
  O96      1.0000 0.66714  0.82152  0.84501  Biso   1.000  O
  O97      1.0000 0.96283  0.52583  0.67282  Biso   1.000  O
  O98      1.0000 0.66714  0.69803  0.96850  Biso   1.000  O
  O99      1.0000 0.96283  0.52583  0.84501  Biso   1.000  O
  O100     1.0000 0.66714  0.82152  0.67282  Biso   1.000  O
  O101     1.0000 0.83934  0.52583  0.96850  Biso   1.000  O
  O102     1.0000 0.66714  0.69803  0.67282  Biso   1.000  O
  O103     1.0000 0.66714  0.52583  0.96850  Biso   1.000  O
  O104     1.0000 0.83934  0.82152  0.67282  Biso   1.000  O
  O105     1.0000 0.66714  0.52583  0.84501  Biso   1.000  O
