data_image0
_cell_length_a       18.2016
_cell_length_b       18.2016
_cell_length_c       18.2016
_cell_angle_alpha    60
_cell_angle_beta     60
_cell_angle_gamma    60

_symmetry_space_group_name_H-M    "P 1"
_symmetry_int_tables_number       1

loop_
  _symmetry_equiv_pos_as_xyz
  'x, y, z'

loop_
  _atom_site_label
  _atom_site_occupancy
  _atom_site_fract_x
  _atom_site_fract_y
  _atom_site_fract_z
  _atom_site_thermal_displace_type
  _atom_site_B_iso_or_equiv
  _atom_site_type_symbol
  C1       1.0000 0.54338  0.36986  0.54338  Biso   1.000  C
  C2       1.0000 0.36986  0.54338  0.54338  Biso   1.000  C
  C3       1.0000 0.54338  0.54338  0.54338  Biso   1.000  C
  C4       1.0000 0.54338  0.54338  0.36986  Biso   1.000  C
  C5       1.0000 0.13029  0.95657  0.95657  Biso   1.000  C
  C6       1.0000 0.95657  0.13029  0.95657  Biso   1.000  C
  C7       1.0000 0.95657  0.95657  0.13029  Biso   1.000  C
  C8       1.0000 0.95657  0.95657  0.95657  Biso   1.000  C
  C9       1.0000 0.31480  0.09680  0.79420  Biso   1.000  C
  C10      1.0000 0.09680  0.31480  0.79420  Biso   1.000  C
  C11      1.0000 0.79420  0.79420  0.31480  Biso   1.000  C
  C12      1.0000 0.79420  0.79420  0.09680  Biso   1.000  C
  C13      1.0000 0.31480  0.79420  0.79420  Biso   1.000  C
  C14      1.0000 0.09680  0.79420  0.79420  Biso   1.000  C
  C15      1.0000 0.79420  0.31480  0.09680  Biso   1.000  C
  C16      1.0000 0.79420  0.09680  0.31480  Biso   1.000  C
  C17      1.0000 0.31480  0.79420  0.09680  Biso   1.000  C
  C18      1.0000 0.09680  0.79420  0.31480  Biso   1.000  C
  C19      1.0000 0.79420  0.09680  0.79420  Biso   1.000  C
  C20      1.0000 0.79420  0.31480  0.79420  Biso   1.000  C
  C21      1.0000 0.33050  0.21250  0.72850  Biso   1.000  C
  C22      1.0000 0.28810  0.15890  0.77650  Biso   1.000  C
  C23      1.0000 0.21250  0.33050  0.72850  Biso   1.000  C
  C24      1.0000 0.15890  0.28810  0.77650  Biso   1.000  C
  C25      1.0000 0.72850  0.72850  0.33050  Biso   1.000  C
  C26      1.0000 0.77650  0.77650  0.28810  Biso   1.000  C
  C27      1.0000 0.72850  0.72850  0.21250  Biso   1.000  C
  C28      1.0000 0.77650  0.77650  0.15890  Biso   1.000  C
  C29      1.0000 0.33050  0.72850  0.72850  Biso   1.000  C
  C30      1.0000 0.28810  0.77650  0.77650  Biso   1.000  C
  C31      1.0000 0.21250  0.72850  0.72850  Biso   1.000  C
  C32      1.0000 0.15890  0.77650  0.77650  Biso   1.000  C
  C33      1.0000 0.72850  0.33050  0.21250  Biso   1.000  C
  C34      1.0000 0.77650  0.28810  0.15890  Biso   1.000  C
  C35      1.0000 0.72850  0.21250  0.33050  Biso   1.000  C
  C36      1.0000 0.77650  0.15890  0.28810  Biso   1.000  C
  C37      1.0000 0.33050  0.72850  0.21250  Biso   1.000  C
  C38      1.0000 0.28810  0.77650  0.15890  Biso   1.000  C
  C39      1.0000 0.21250  0.72850  0.33050  Biso   1.000  C
  C40      1.0000 0.15890  0.77650  0.28810  Biso   1.000  C
  C41      1.0000 0.72850  0.21250  0.72850  Biso   1.000  C
  C42      1.0000 0.77650  0.15890  0.77650  Biso   1.000  C
  C43      1.0000 0.72850  0.33050  0.72850  Biso   1.000  C
  C44      1.0000 0.77650  0.28810  0.77650  Biso   1.000  C
  C45      1.0000 0.30490  0.30490  0.69510  Biso   1.000  C
  C46      1.0000 0.20070  0.20070  0.79930  Biso   1.000  C
  C47      1.0000 0.13930  0.13930  0.86070  Biso   1.000  C
  C48      1.0000 0.36170  0.36170  0.63830  Biso   1.000  C
  C49      1.0000 0.69510  0.69510  0.30490  Biso   1.000  C
  C50      1.0000 0.79930  0.79930  0.20070  Biso   1.000  C
  C51      1.0000 0.86070  0.86070  0.13930  Biso   1.000  C
  C52      1.0000 0.63830  0.63830  0.36170  Biso   1.000  C
  C53      1.0000 0.30490  0.69510  0.69510  Biso   1.000  C
  C54      1.0000 0.20070  0.79930  0.79930  Biso   1.000  C
  C55      1.0000 0.13930  0.86070  0.86070  Biso   1.000  C
  C56      1.0000 0.36170  0.63830  0.63830  Biso   1.000  C
  C57      1.0000 0.69510  0.30490  0.30490  Biso   1.000  C
  C58      1.0000 0.79930  0.20070  0.20070  Biso   1.000  C
  C59      1.0000 0.86070  0.13930  0.13930  Biso   1.000  C
  C60      1.0000 0.63830  0.36170  0.36170  Biso   1.000  C
  C61      1.0000 0.30490  0.69510  0.30490  Biso   1.000  C
  C62      1.0000 0.20070  0.79930  0.20070  Biso   1.000  C
  C63      1.0000 0.13930  0.86070  0.13930  Biso   1.000  C
  C64      1.0000 0.36170  0.63830  0.36170  Biso   1.000  C
  C65      1.0000 0.69510  0.30490  0.69510  Biso   1.000  C
  C66      1.0000 0.79930  0.20070  0.79930  Biso   1.000  C
  C67      1.0000 0.86070  0.13930  0.86070  Biso   1.000  C
  C68      1.0000 0.63830  0.36170  0.63830  Biso   1.000  C
  C69      1.0000 0.17850  0.05170  0.88490  Biso   1.000  C
  C70      1.0000 0.44150  0.32470  0.61690  Biso   1.000  C
  C71      1.0000 0.05170  0.17850  0.88490  Biso   1.000  C
  C72      1.0000 0.32470  0.44150  0.61690  Biso   1.000  C
  C73      1.0000 0.88490  0.88490  0.17850  Biso   1.000  C
  C74      1.0000 0.61690  0.61690  0.44150  Biso   1.000  C
  C75      1.0000 0.88490  0.88490  0.05170  Biso   1.000  C
  C76      1.0000 0.61690  0.61690  0.32470  Biso   1.000  C
  C77      1.0000 0.17850  0.88490  0.88490  Biso   1.000  C
  C78      1.0000 0.44150  0.61690  0.61690  Biso   1.000  C
  C79      1.0000 0.05170  0.88490  0.88490  Biso   1.000  C
  C80      1.0000 0.32470  0.61690  0.61690  Biso   1.000  C
  C81      1.0000 0.88490  0.17850  0.05170  Biso   1.000  C
  C82      1.0000 0.61690  0.44150  0.32470  Biso   1.000  C
  C83      1.0000 0.88490  0.05170  0.17850  Biso   1.000  C
  C84      1.0000 0.61690  0.32470  0.44150  Biso   1.000  C
  C85      1.0000 0.17850  0.88490  0.05170  Biso   1.000  C
  C86      1.0000 0.44150  0.61690  0.32470  Biso   1.000  C
  C87      1.0000 0.05170  0.88490  0.17850  Biso   1.000  C
  C88      1.0000 0.32470  0.61690  0.44150  Biso   1.000  C
  C89      1.0000 0.88490  0.05170  0.88490  Biso   1.000  C
  C90      1.0000 0.61690  0.32470  0.61690  Biso   1.000  C
  C91      1.0000 0.88490  0.17850  0.88490  Biso   1.000  C
  C92      1.0000 0.61690  0.44150  0.61690  Biso   1.000  C
  C93      1.0000 0.00000  0.00000  0.00000  Biso   1.000  C
  C94      1.0000 0.50000  0.50000  0.50000  Biso   1.000  C
  O1       1.0000 0.16028  0.33193  0.33644  Biso   1.000  O
  O2       1.0000 0.33307  0.15913  0.33649  Biso   1.000  O
  O3       1.0000 0.33313  0.33193  0.33644  Biso   1.000  O
  O4       1.0000 0.33308  0.33198  0.16364  Biso   1.000  O
  O5       1.0000 0.92092  0.74414  0.74864  Biso   1.000  O
  O6       1.0000 0.74813  0.91694  0.74859  Biso   1.000  O
  O7       1.0000 0.74807  0.74414  0.74864  Biso   1.000  O
  O8       1.0000 0.74812  0.74410  0.92144  Biso   1.000  O
  O9       1.0000 0.00172  0.13160  0.51541  Biso   1.000  O
  O10      1.0000 0.00071  0.51111  0.51741  Biso   1.000  O
  O11      1.0000 0.00191  0.51011  0.13610  Biso   1.000  O
  O12      1.0000 0.13559  0.99774  0.51641  Biso   1.000  O
  O13      1.0000 0.51510  0.99673  0.13590  Biso   1.000  O
  O14      1.0000 0.51410  0.99793  0.51701  Biso   1.000  O
  O15      1.0000 0.51305  0.51090  0.13611  Biso   1.000  O
  O16      1.0000 0.13254  0.51291  0.51562  Biso   1.000  O
  O17      1.0000 0.51365  0.13159  0.51462  Biso   1.000  O
  O18      1.0000 0.51205  0.51191  0.00224  Biso   1.000  O
  O19      1.0000 0.51405  0.13140  0.00123  Biso   1.000  O
  O20      1.0000 0.13274  0.51251  0.00243  Biso   1.000  O
  O21      1.0000 0.07948  0.94447  0.56967  Biso   1.000  O
  O22      1.0000 0.08049  0.56496  0.56767  Biso   1.000  O
  O23      1.0000 0.07929  0.56596  0.94898  Biso   1.000  O
  O24      1.0000 0.94561  0.07833  0.56868  Biso   1.000  O
  O25      1.0000 0.56610  0.07934  0.94918  Biso   1.000  O
  O26      1.0000 0.56710  0.07814  0.56807  Biso   1.000  O
  O27      1.0000 0.56815  0.56517  0.94897  Biso   1.000  O
  O28      1.0000 0.94866  0.56317  0.56946  Biso   1.000  O
  O29      1.0000 0.56755  0.94448  0.57046  Biso   1.000  O
  O30      1.0000 0.56915  0.56417  0.08284  Biso   1.000  O
  O31      1.0000 0.56715  0.94468  0.08385  Biso   1.000  O
  O32      1.0000 0.94846  0.56356  0.08265  Biso   1.000  O
  O33      1.0000 0.09424  0.09310  0.48889  Biso   1.000  O
  O34      1.0000 0.15276  0.15161  0.43038  Biso   1.000  O
  O35      1.0000 0.48553  0.48439  0.09761  Biso   1.000  O
  O36      1.0000 0.42702  0.42587  0.15612  Biso   1.000  O
  O37      1.0000 0.98696  0.98297  0.59619  Biso   1.000  O
  O38      1.0000 0.92844  0.92446  0.65470  Biso   1.000  O
  O39      1.0000 0.59567  0.59169  0.98747  Biso   1.000  O
  O40      1.0000 0.65418  0.65020  0.92896  Biso   1.000  O
  O41      1.0000 0.09405  0.48458  0.09741  Biso   1.000  O
  O42      1.0000 0.15228  0.42635  0.15564  Biso   1.000  O
  O43      1.0000 0.48573  0.09290  0.48909  Biso   1.000  O
  O44      1.0000 0.42749  0.15113  0.43086  Biso   1.000  O
  O45      1.0000 0.98715  0.59149  0.98767  Biso   1.000  O
  O46      1.0000 0.92892  0.64972  0.92944  Biso   1.000  O
  O47      1.0000 0.59547  0.98317  0.59599  Biso   1.000  O
  O48      1.0000 0.65371  0.92494  0.65422  Biso   1.000  O
  O49      1.0000 0.09385  0.48479  0.48929  Biso   1.000  O
  O50      1.0000 0.15208  0.42655  0.43106  Biso   1.000  O
  O51      1.0000 0.48593  0.09270  0.09721  Biso   1.000  O
  O52      1.0000 0.42769  0.15093  0.15544  Biso   1.000  O
  O53      1.0000 0.98735  0.59129  0.59579  Biso   1.000  O
  O54      1.0000 0.92912  0.64952  0.65402  Biso   1.000  O
  O55      1.0000 0.59527  0.98338  0.98787  Biso   1.000  O
  O56      1.0000 0.65351  0.92514  0.92964  Biso   1.000  O
  O57      1.0000 0.11223  0.23561  0.40944  Biso   1.000  O
  O58      1.0000 0.11273  0.40334  0.23929  Biso   1.000  O
  O59      1.0000 0.11188  0.40370  0.40902  Biso   1.000  O
  O60      1.0000 0.23676  0.11109  0.40785  Biso   1.000  O
  O61      1.0000 0.40448  0.11159  0.40978  Biso   1.000  O
  O62      1.0000 0.40484  0.11073  0.24054  Biso   1.000  O
  O63      1.0000 0.40448  0.40493  0.24012  Biso   1.000  O
  O64      1.0000 0.40642  0.23478  0.40785  Biso   1.000  O
  O65      1.0000 0.23718  0.40451  0.40820  Biso   1.000  O
  O66      1.0000 0.40608  0.40334  0.11560  Biso   1.000  O
  O67      1.0000 0.23592  0.40527  0.11610  Biso   1.000  O
  O68      1.0000 0.40566  0.23603  0.11524  Biso   1.000  O
  O69      1.0000 0.96897  0.84046  0.67564  Biso   1.000  O
  O70      1.0000 0.96847  0.67274  0.84580  Biso   1.000  O
  O71      1.0000 0.96932  0.67238  0.67606  Biso   1.000  O
  O72      1.0000 0.84444  0.96499  0.67724  Biso   1.000  O
  O73      1.0000 0.67672  0.96449  0.67530  Biso   1.000  O
  O74      1.0000 0.67636  0.96535  0.84454  Biso   1.000  O
  O75      1.0000 0.67672  0.67114  0.84496  Biso   1.000  O
  O76      1.0000 0.67478  0.84130  0.67724  Biso   1.000  O
  O77      1.0000 0.84402  0.67156  0.67688  Biso   1.000  O
  O78      1.0000 0.67512  0.67274  0.96948  Biso   1.000  O
  O79      1.0000 0.84528  0.67080  0.96899  Biso   1.000  O
  O80      1.0000 0.67554  0.84004  0.96984  Biso   1.000  O
  O81      1.0000 0.28989  0.28874  0.29325  Biso   1.000  O
  O82      1.0000 0.79131  0.78733  0.79183  Biso   1.000  O
  O83      1.0000 0.96862  0.48823  0.49600  Biso   1.000  O
  O84      1.0000 0.20892  0.49150  0.49273  Biso   1.000  O
  O85      1.0000 0.11258  0.58785  0.58908  Biso   1.000  O
  O86      1.0000 0.87228  0.58458  0.59235  Biso   1.000  O
  O87      1.0000 0.49250  0.20796  0.49149  Biso   1.000  O
  O88      1.0000 0.59023  0.11023  0.58922  Biso   1.000  O
  O89      1.0000 0.96982  0.48698  0.21247  Biso   1.000  O
  O90      1.0000 0.87209  0.58471  0.11474  Biso   1.000  O
  O91      1.0000 0.21197  0.96564  0.49468  Biso   1.000  O
  O92      1.0000 0.49222  0.96464  0.21228  Biso   1.000  O
  O93      1.0000 0.59171  0.58590  0.11494  Biso   1.000  O
  O94      1.0000 0.58856  0.86830  0.11594  Biso   1.000  O
  O95      1.0000 0.49097  0.96584  0.49586  Biso   1.000  O
  O96      1.0000 0.58870  0.86811  0.59360  Biso   1.000  O
  O97      1.0000 0.20911  0.49136  0.97034  Biso   1.000  O
  O98      1.0000 0.11138  0.58909  0.87261  Biso   1.000  O
  O99      1.0000 0.58988  0.58773  0.87259  Biso   1.000  O
  O100     1.0000 0.49264  0.20778  0.96914  Biso   1.000  O
  O101     1.0000 0.58898  0.11143  0.87280  Biso   1.000  O
  O102     1.0000 0.48949  0.49018  0.97014  Biso   1.000  O
  O103     1.0000 0.86923  0.11043  0.59040  Biso   1.000  O
  O104     1.0000 0.96962  0.20798  0.49285  Biso   1.000  O
  O105     1.0000 0.11158  0.86809  0.59223  Biso   1.000  O
