data_image0
_cell_length_a       18.2016
_cell_length_b       18.2016
_cell_length_c       18.2016
_cell_angle_alpha    60
_cell_angle_beta     60
_cell_angle_gamma    60

_symmetry_space_group_name_H-M    "P 1"
_symmetry_int_tables_number       1

loop_
  _symmetry_equiv_pos_as_xyz
  'x, y, z'

loop_
  _atom_site_label
  _atom_site_occupancy
  _atom_site_fract_x
  _atom_site_fract_y
  _atom_site_fract_z
  _atom_site_thermal_displace_type
  _atom_site_B_iso_or_equiv
  _atom_site_type_symbol
  Zn1      1.0000 0.54338  0.36986  0.54338  Biso   1.000  Zn
  Zn2      1.0000 0.36986  0.54338  0.54338  Biso   1.000  Zn
  Zn3      1.0000 0.54338  0.54338  0.54338  Biso   1.000  Zn
  Zn4      1.0000 0.54338  0.54338  0.36986  Biso   1.000  Zn
  Zn5      1.0000 0.13029  0.95657  0.95657  Biso   1.000  Zn
  Zn6      1.0000 0.95657  0.13029  0.95657  Biso   1.000  Zn
  Zn7      1.0000 0.95657  0.95657  0.13029  Biso   1.000  Zn
  Zn8      1.0000 0.95657  0.95657  0.95657  Biso   1.000  Zn
  H1       1.0000 0.31480  0.09680  0.79420  Biso   1.000  H
  H2       1.0000 0.09680  0.31480  0.79420  Biso   1.000  H
  H3       1.0000 0.79420  0.79420  0.31480  Biso   1.000  H
  H4       1.0000 0.79420  0.79420  0.09680  Biso   1.000  H
  H5       1.0000 0.31480  0.79420  0.79420  Biso   1.000  H
  H6       1.0000 0.09680  0.79420  0.79420  Biso   1.000  H
  H7       1.0000 0.79420  0.31480  0.09680  Biso   1.000  H
  H8       1.0000 0.79420  0.09680  0.31480  Biso   1.000  H
  H9       1.0000 0.31480  0.79420  0.09680  Biso   1.000  H
  H10      1.0000 0.09680  0.79420  0.31480  Biso   1.000  H
  H11      1.0000 0.79420  0.09680  0.79420  Biso   1.000  H
  H12      1.0000 0.79420  0.31480  0.79420  Biso   1.000  H
  C1       1.0000 0.33050  0.21250  0.72850  Biso   1.000  C
  C2       1.0000 0.28810  0.15890  0.77650  Biso   1.000  C
  C3       1.0000 0.21250  0.33050  0.72850  Biso   1.000  C
  C4       1.0000 0.15890  0.28810  0.77650  Biso   1.000  C
  C5       1.0000 0.72850  0.72850  0.33050  Biso   1.000  C
  C6       1.0000 0.77650  0.77650  0.28810  Biso   1.000  C
  C7       1.0000 0.72850  0.72850  0.21250  Biso   1.000  C
  C8       1.0000 0.77650  0.77650  0.15890  Biso   1.000  C
  C9       1.0000 0.33050  0.72850  0.72850  Biso   1.000  C
  C10      1.0000 0.28810  0.77650  0.77650  Biso   1.000  C
  C11      1.0000 0.21250  0.72850  0.72850  Biso   1.000  C
  C12      1.0000 0.15890  0.77650  0.77650  Biso   1.000  C
  C13      1.0000 0.72850  0.33050  0.21250  Biso   1.000  C
  C14      1.0000 0.77650  0.28810  0.15890  Biso   1.000  C
  C15      1.0000 0.72850  0.21250  0.33050  Biso   1.000  C
  C16      1.0000 0.77650  0.15890  0.28810  Biso   1.000  C
  C17      1.0000 0.33050  0.72850  0.21250  Biso   1.000  C
  C18      1.0000 0.28810  0.77650  0.15890  Biso   1.000  C
  C19      1.0000 0.21250  0.72850  0.33050  Biso   1.000  C
  C20      1.0000 0.15890  0.77650  0.28810  Biso   1.000  C
  C21      1.0000 0.72850  0.21250  0.72850  Biso   1.000  C
  C22      1.0000 0.77650  0.15890  0.77650  Biso   1.000  C
  C23      1.0000 0.72850  0.33050  0.72850  Biso   1.000  C
  C24      1.0000 0.77650  0.28810  0.77650  Biso   1.000  C
  C25      1.0000 0.30490  0.30490  0.69510  Biso   1.000  C
  C26      1.0000 0.20070  0.20070  0.79930  Biso   1.000  C
  C27      1.0000 0.13930  0.13930  0.86070  Biso   1.000  C
  C28      1.0000 0.36170  0.36170  0.63830  Biso   1.000  C
  C29      1.0000 0.69510  0.69510  0.30490  Biso   1.000  C
  C30      1.0000 0.79930  0.79930  0.20070  Biso   1.000  C
  C31      1.0000 0.86070  0.86070  0.13930  Biso   1.000  C
  C32      1.0000 0.63830  0.63830  0.36170  Biso   1.000  C
  C33      1.0000 0.30490  0.69510  0.69510  Biso   1.000  C
  C34      1.0000 0.20070  0.79930  0.79930  Biso   1.000  C
  C35      1.0000 0.13930  0.86070  0.86070  Biso   1.000  C
  C36      1.0000 0.36170  0.63830  0.63830  Biso   1.000  C
  C37      1.0000 0.69510  0.30490  0.30490  Biso   1.000  C
  C38      1.0000 0.79930  0.20070  0.20070  Biso   1.000  C
  C39      1.0000 0.86070  0.13930  0.13930  Biso   1.000  C
  C40      1.0000 0.63830  0.36170  0.36170  Biso   1.000  C
  C41      1.0000 0.30490  0.69510  0.30490  Biso   1.000  C
  C42      1.0000 0.20070  0.79930  0.20070  Biso   1.000  C
  C43      1.0000 0.13930  0.86070  0.13930  Biso   1.000  C
  C44      1.0000 0.36170  0.63830  0.36170  Biso   1.000  C
  C45      1.0000 0.69510  0.30490  0.69510  Biso   1.000  C
  C46      1.0000 0.79930  0.20070  0.79930  Biso   1.000  C
  C47      1.0000 0.86070  0.13930  0.86070  Biso   1.000  C
  C48      1.0000 0.63830  0.36170  0.63830  Biso   1.000  C
  O1       1.0000 0.17850  0.05170  0.88490  Biso   1.000  O
  O2       1.0000 0.44150  0.32470  0.61690  Biso   1.000  O
  O3       1.0000 0.05170  0.17850  0.88490  Biso   1.000  O
  O4       1.0000 0.32470  0.44150  0.61690  Biso   1.000  O
  O5       1.0000 0.88490  0.88490  0.17850  Biso   1.000  O
  O6       1.0000 0.61690  0.61690  0.44150  Biso   1.000  O
  O7       1.0000 0.88490  0.88490  0.05170  Biso   1.000  O
  O8       1.0000 0.61690  0.61690  0.32470  Biso   1.000  O
  O9       1.0000 0.17850  0.88490  0.88490  Biso   1.000  O
  O10      1.0000 0.44150  0.61690  0.61690  Biso   1.000  O
  O11      1.0000 0.05170  0.88490  0.88490  Biso   1.000  O
  O12      1.0000 0.32470  0.61690  0.61690  Biso   1.000  O
  O13      1.0000 0.88490  0.17850  0.05170  Biso   1.000  O
  O14      1.0000 0.61690  0.44150  0.32470  Biso   1.000  O
  O15      1.0000 0.88490  0.05170  0.17850  Biso   1.000  O
  O16      1.0000 0.61690  0.32470  0.44150  Biso   1.000  O
  O17      1.0000 0.17850  0.88490  0.05170  Biso   1.000  O
  O18      1.0000 0.44150  0.61690  0.32470  Biso   1.000  O
  O19      1.0000 0.05170  0.88490  0.17850  Biso   1.000  O
  O20      1.0000 0.32470  0.61690  0.44150  Biso   1.000  O
  O21      1.0000 0.88490  0.05170  0.88490  Biso   1.000  O
  O22      1.0000 0.61690  0.32470  0.61690  Biso   1.000  O
  O23      1.0000 0.88490  0.17850  0.88490  Biso   1.000  O
  O24      1.0000 0.61690  0.44150  0.61690  Biso   1.000  O
  O25      1.0000 0.00000  0.00000  0.00000  Biso   1.000  O
  O26      1.0000 0.50000  0.50000  0.50000  Biso   1.000  O
  Zn9      1.0000 0.31888  0.01473  0.33644  Biso   1.000  Zn
  Zn10     1.0000 0.31888  0.19009  0.33644  Biso   1.000  Zn
  Zn11     1.0000 0.14352  0.19009  0.33644  Biso   1.000  Zn
  Zn12     1.0000 0.31888  0.19009  0.16108  Biso   1.000  Zn
  Zn13     1.0000 0.73942  0.59967  0.74602  Biso   1.000  Zn
  Zn14     1.0000 0.73942  0.77503  0.74602  Biso   1.000  Zn
  Zn15     1.0000 0.91478  0.59967  0.74602  Biso   1.000  Zn
  Zn16     1.0000 0.73942  0.59967  0.92138  Biso   1.000  Zn
  H13      1.0000 0.18726  0.82882  0.49520  Biso   1.000  H
  H14      1.0000 0.47764  0.34885  0.20482  Biso   1.000  H
  H15      1.0000 0.95761  0.05847  0.49520  Biso   1.000  H
  H16      1.0000 0.47764  0.34885  0.97517  Biso   1.000  H
  H17      1.0000 0.95761  0.34885  0.20482  Biso   1.000  H
  H18      1.0000 0.47764  0.05847  0.49520  Biso   1.000  H
  H19      1.0000 0.18726  0.34885  0.97517  Biso   1.000  H
  H20      1.0000 0.47764  0.82882  0.49520  Biso   1.000  H
  H21      1.0000 0.47764  0.05847  0.97517  Biso   1.000  H
  H22      1.0000 0.18726  0.34885  0.49520  Biso   1.000  H
  H23      1.0000 0.47764  0.82882  0.20482  Biso   1.000  H
  H24      1.0000 0.95761  0.34885  0.49520  Biso   1.000  H
  H25      1.0000 0.87104  0.44090  0.58725  Biso   1.000  H
  H26      1.0000 0.58066  0.96094  0.87764  Biso   1.000  H
  H27      1.0000 0.10069  0.44090  0.58725  Biso   1.000  H
  H28      1.0000 0.58066  0.73129  0.10729  Biso   1.000  H
  H29      1.0000 0.10069  0.44090  0.87764  Biso   1.000  H
  H30      1.0000 0.58066  0.96094  0.58725  Biso   1.000  H
  H31      1.0000 0.87104  0.44090  0.10729  Biso   1.000  H
  H32      1.0000 0.58066  0.73129  0.58725  Biso   1.000  H
  H33      1.0000 0.58066  0.44090  0.10729  Biso   1.000  H
  H34      1.0000 0.87104  0.96094  0.58725  Biso   1.000  H
  H35      1.0000 0.58066  0.44090  0.87764  Biso   1.000  H
  H36      1.0000 0.10069  0.73129  0.58725  Biso   1.000  H
  C49      1.0000 0.11617  0.85546  0.51743  Biso   1.000  C
  C50      1.0000 0.49986  0.37108  0.13373  Biso   1.000  C
  C51      1.0000 0.98425  0.98738  0.51743  Biso   1.000  C
  C52      1.0000 0.49986  0.37108  0.00181  Biso   1.000  C
  C53      1.0000 0.98425  0.37108  0.13373  Biso   1.000  C
  C54      1.0000 0.49986  0.98738  0.51743  Biso   1.000  C
  C55      1.0000 0.11617  0.37108  0.00181  Biso   1.000  C
  C56      1.0000 0.49986  0.85546  0.51743  Biso   1.000  C
  C57      1.0000 0.49986  0.98738  0.00181  Biso   1.000  C
  C58      1.0000 0.11617  0.37108  0.51743  Biso   1.000  C
  C59      1.0000 0.49986  0.85546  0.13373  Biso   1.000  C
  C60      1.0000 0.98425  0.37108  0.51743  Biso   1.000  C
  C61      1.0000 0.94213  0.41868  0.56503  Biso   1.000  C
  C62      1.0000 0.55844  0.93429  0.94872  Biso   1.000  C
  C63      1.0000 0.07405  0.41868  0.56503  Biso   1.000  C
  C64      1.0000 0.55844  0.80237  0.08064  Biso   1.000  C
  C65      1.0000 0.07405  0.41868  0.94872  Biso   1.000  C
  C66      1.0000 0.55844  0.93429  0.56503  Biso   1.000  C
  C67      1.0000 0.94213  0.41868  0.08064  Biso   1.000  C
  C68      1.0000 0.55844  0.80237  0.56503  Biso   1.000  C
  C69      1.0000 0.55844  0.41868  0.08064  Biso   1.000  C
  C70      1.0000 0.94213  0.93429  0.56503  Biso   1.000  C
  C71      1.0000 0.55844  0.41868  0.94872  Biso   1.000  C
  C72      1.0000 0.07405  0.80237  0.56503  Biso   1.000  C
  C73      1.0000 0.13477  0.00599  0.43286  Biso   1.000  C
  C74      1.0000 0.07826  0.94948  0.48937  Biso   1.000  C
  C75      1.0000 0.41530  0.28651  0.15233  Biso   1.000  C
  C76      1.0000 0.47181  0.34302  0.09583  Biso   1.000  C
  C77      1.0000 0.13477  0.28651  0.15233  Biso   1.000  C
  C78      1.0000 0.07826  0.34302  0.09583  Biso   1.000  C
  C79      1.0000 0.41530  0.00599  0.43286  Biso   1.000  C
  C80      1.0000 0.47181  0.94948  0.48937  Biso   1.000  C
  C81      1.0000 0.41530  0.00599  0.15233  Biso   1.000  C
  C82      1.0000 0.47181  0.94948  0.09583  Biso   1.000  C
  C83      1.0000 0.13477  0.28651  0.43286  Biso   1.000  C
  C84      1.0000 0.07826  0.34302  0.48937  Biso   1.000  C
  C85      1.0000 0.92353  0.50324  0.64959  Biso   1.000  C
  C86      1.0000 0.98003  0.44674  0.59309  Biso   1.000  C
  C87      1.0000 0.64300  0.78377  0.93012  Biso   1.000  C
  C88      1.0000 0.58649  0.84028  0.98663  Biso   1.000  C
  C89      1.0000 0.92353  0.50324  0.93012  Biso   1.000  C
  C90      1.0000 0.98003  0.44674  0.98663  Biso   1.000  C
  C91      1.0000 0.64300  0.78377  0.64959  Biso   1.000  C
  C92      1.0000 0.58649  0.84028  0.59309  Biso   1.000  C
  C93      1.0000 0.64300  0.50324  0.93012  Biso   1.000  C
  C94      1.0000 0.58649  0.44674  0.98663  Biso   1.000  C
  C95      1.0000 0.92353  0.78377  0.64959  Biso   1.000  C
  C96      1.0000 0.98003  0.84028  0.59309  Biso   1.000  C
  O27      1.0000 0.27504  0.14625  0.29260  Biso   1.000  O
  O28      1.0000 0.78326  0.64351  0.78986  Biso   1.000  O
  O29      1.0000 0.21964  0.96697  0.40994  Biso   1.000  O
  O30      1.0000 0.39238  0.26359  0.23720  Biso   1.000  O
  O31      1.0000 0.09576  0.09085  0.40994  Biso   1.000  O
  O32      1.0000 0.39238  0.26359  0.11332  Biso   1.000  O
  O33      1.0000 0.09576  0.26359  0.23720  Biso   1.000  O
  O34      1.0000 0.39238  0.09085  0.40994  Biso   1.000  O
  O35      1.0000 0.21964  0.26359  0.11332  Biso   1.000  O
  O36      1.0000 0.39238  0.96697  0.40994  Biso   1.000  O
  O37      1.0000 0.39238  0.09085  0.11332  Biso   1.000  O
  O38      1.0000 0.21964  0.26359  0.40994  Biso   1.000  O
  O39      1.0000 0.39238  0.96697  0.23720  Biso   1.000  O
  O40      1.0000 0.09576  0.26359  0.40994  Biso   1.000  O
  O41      1.0000 0.83866  0.52617  0.67252  Biso   1.000  O
  O42      1.0000 0.66592  0.82279  0.84526  Biso   1.000  O
  O43      1.0000 0.96254  0.52617  0.67252  Biso   1.000  O
  O44      1.0000 0.66592  0.69891  0.96914  Biso   1.000  O
  O45      1.0000 0.96254  0.52617  0.84526  Biso   1.000  O
  O46      1.0000 0.66592  0.82279  0.67252  Biso   1.000  O
  O47      1.0000 0.83866  0.52617  0.96914  Biso   1.000  O
  O48      1.0000 0.66592  0.69891  0.67252  Biso   1.000  O
  O49      1.0000 0.66592  0.52617  0.96914  Biso   1.000  O
  O50      1.0000 0.83866  0.82279  0.67252  Biso   1.000  O
  O51      1.0000 0.66592  0.52617  0.84526  Biso   1.000  O
