data_image0
_cell_length_a       18.2016
_cell_length_b       18.2016
_cell_length_c       18.2016
_cell_angle_alpha    60
_cell_angle_beta     60
_cell_angle_gamma    60

_symmetry_space_group_name_H-M    "P 1"
_symmetry_int_tables_number       1

loop_
  _symmetry_equiv_pos_as_xyz
  'x, y, z'

loop_
  _atom_site_label
  _atom_site_occupancy
  _atom_site_fract_x
  _atom_site_fract_y
  _atom_site_fract_z
  _atom_site_thermal_displace_type
  _atom_site_B_iso_or_equiv
  _atom_site_type_symbol
  Zn1      1.0000 0.54338  0.36986  0.54338  Biso   1.000  Zn
  Zn2      1.0000 0.36986  0.54338  0.54338  Biso   1.000  Zn
  Zn3      1.0000 0.54338  0.54338  0.54338  Biso   1.000  Zn
  Zn4      1.0000 0.54338  0.54338  0.36986  Biso   1.000  Zn
  Zn5      1.0000 0.13029  0.95657  0.95657  Biso   1.000  Zn
  Zn6      1.0000 0.95657  0.13029  0.95657  Biso   1.000  Zn
  Zn7      1.0000 0.95657  0.95657  0.13029  Biso   1.000  Zn
  Zn8      1.0000 0.95657  0.95657  0.95657  Biso   1.000  Zn
  H1       1.0000 0.31480  0.09680  0.79420  Biso   1.000  H
  H2       1.0000 0.09680  0.31480  0.79420  Biso   1.000  H
  H3       1.0000 0.79420  0.79420  0.31480  Biso   1.000  H
  H4       1.0000 0.79420  0.79420  0.09680  Biso   1.000  H
  H5       1.0000 0.31480  0.79420  0.79420  Biso   1.000  H
  H6       1.0000 0.09680  0.79420  0.79420  Biso   1.000  H
  H7       1.0000 0.79420  0.31480  0.09680  Biso   1.000  H
  H8       1.0000 0.79420  0.09680  0.31480  Biso   1.000  H
  H9       1.0000 0.31480  0.79420  0.09680  Biso   1.000  H
  H10      1.0000 0.09680  0.79420  0.31480  Biso   1.000  H
  H11      1.0000 0.79420  0.09680  0.79420  Biso   1.000  H
  H12      1.0000 0.79420  0.31480  0.79420  Biso   1.000  H
  C1       1.0000 0.33050  0.21250  0.72850  Biso   1.000  C
  C2       1.0000 0.28810  0.15890  0.77650  Biso   1.000  C
  C3       1.0000 0.21250  0.33050  0.72850  Biso   1.000  C
  C4       1.0000 0.15890  0.28810  0.77650  Biso   1.000  C
  C5       1.0000 0.72850  0.72850  0.33050  Biso   1.000  C
  C6       1.0000 0.77650  0.77650  0.28810  Biso   1.000  C
  C7       1.0000 0.72850  0.72850  0.21250  Biso   1.000  C
  C8       1.0000 0.77650  0.77650  0.15890  Biso   1.000  C
  C9       1.0000 0.33050  0.72850  0.72850  Biso   1.000  C
  C10      1.0000 0.28810  0.77650  0.77650  Biso   1.000  C
  C11      1.0000 0.21250  0.72850  0.72850  Biso   1.000  C
  C12      1.0000 0.15890  0.77650  0.77650  Biso   1.000  C
  C13      1.0000 0.72850  0.33050  0.21250  Biso   1.000  C
  C14      1.0000 0.77650  0.28810  0.15890  Biso   1.000  C
  C15      1.0000 0.72850  0.21250  0.33050  Biso   1.000  C
  C16      1.0000 0.77650  0.15890  0.28810  Biso   1.000  C
  C17      1.0000 0.33050  0.72850  0.21250  Biso   1.000  C
  C18      1.0000 0.28810  0.77650  0.15890  Biso   1.000  C
  C19      1.0000 0.21250  0.72850  0.33050  Biso   1.000  C
  C20      1.0000 0.15890  0.77650  0.28810  Biso   1.000  C
  C21      1.0000 0.72850  0.21250  0.72850  Biso   1.000  C
  C22      1.0000 0.77650  0.15890  0.77650  Biso   1.000  C
  C23      1.0000 0.72850  0.33050  0.72850  Biso   1.000  C
  C24      1.0000 0.77650  0.28810  0.77650  Biso   1.000  C
  C25      1.0000 0.30490  0.30490  0.69510  Biso   1.000  C
  C26      1.0000 0.20070  0.20070  0.79930  Biso   1.000  C
  C27      1.0000 0.13930  0.13930  0.86070  Biso   1.000  C
  C28      1.0000 0.36170  0.36170  0.63830  Biso   1.000  C
  C29      1.0000 0.69510  0.69510  0.30490  Biso   1.000  C
  C30      1.0000 0.79930  0.79930  0.20070  Biso   1.000  C
  C31      1.0000 0.86070  0.86070  0.13930  Biso   1.000  C
  C32      1.0000 0.63830  0.63830  0.36170  Biso   1.000  C
  C33      1.0000 0.30490  0.69510  0.69510  Biso   1.000  C
  C34      1.0000 0.20070  0.79930  0.79930  Biso   1.000  C
  C35      1.0000 0.13930  0.86070  0.86070  Biso   1.000  C
  C36      1.0000 0.36170  0.63830  0.63830  Biso   1.000  C
  C37      1.0000 0.69510  0.30490  0.30490  Biso   1.000  C
  C38      1.0000 0.79930  0.20070  0.20070  Biso   1.000  C
  C39      1.0000 0.86070  0.13930  0.13930  Biso   1.000  C
  C40      1.0000 0.63830  0.36170  0.36170  Biso   1.000  C
  C41      1.0000 0.30490  0.69510  0.30490  Biso   1.000  C
  C42      1.0000 0.20070  0.79930  0.20070  Biso   1.000  C
  C43      1.0000 0.13930  0.86070  0.13930  Biso   1.000  C
  C44      1.0000 0.36170  0.63830  0.36170  Biso   1.000  C
  C45      1.0000 0.69510  0.30490  0.69510  Biso   1.000  C
  C46      1.0000 0.79930  0.20070  0.79930  Biso   1.000  C
  C47      1.0000 0.86070  0.13930  0.86070  Biso   1.000  C
  C48      1.0000 0.63830  0.36170  0.63830  Biso   1.000  C
  O1       1.0000 0.17850  0.05170  0.88490  Biso   1.000  O
  O2       1.0000 0.44150  0.32470  0.61690  Biso   1.000  O
  O3       1.0000 0.05170  0.17850  0.88490  Biso   1.000  O
  O4       1.0000 0.32470  0.44150  0.61690  Biso   1.000  O
  O5       1.0000 0.88490  0.88490  0.17850  Biso   1.000  O
  O6       1.0000 0.61690  0.61690  0.44150  Biso   1.000  O
  O7       1.0000 0.88490  0.88490  0.05170  Biso   1.000  O
  O8       1.0000 0.61690  0.61690  0.32470  Biso   1.000  O
  O9       1.0000 0.17850  0.88490  0.88490  Biso   1.000  O
  O10      1.0000 0.44150  0.61690  0.61690  Biso   1.000  O
  O11      1.0000 0.05170  0.88490  0.88490  Biso   1.000  O
  O12      1.0000 0.32470  0.61690  0.61690  Biso   1.000  O
  O13      1.0000 0.88490  0.17850  0.05170  Biso   1.000  O
  O14      1.0000 0.61690  0.44150  0.32470  Biso   1.000  O
  O15      1.0000 0.88490  0.05170  0.17850  Biso   1.000  O
  O16      1.0000 0.61690  0.32470  0.44150  Biso   1.000  O
  O17      1.0000 0.17850  0.88490  0.05170  Biso   1.000  O
  O18      1.0000 0.44150  0.61690  0.32470  Biso   1.000  O
  O19      1.0000 0.05170  0.88490  0.17850  Biso   1.000  O
  O20      1.0000 0.32470  0.61690  0.44150  Biso   1.000  O
  O21      1.0000 0.88490  0.05170  0.88490  Biso   1.000  O
  O22      1.0000 0.61690  0.32470  0.61690  Biso   1.000  O
  O23      1.0000 0.88490  0.17850  0.88490  Biso   1.000  O
  O24      1.0000 0.61690  0.44150  0.61690  Biso   1.000  O
  O25      1.0000 0.00000  0.00000  0.00000  Biso   1.000  O
  O26      1.0000 0.50000  0.50000  0.50000  Biso   1.000  O
  Zn9      1.0000 0.76937  0.57799  0.74017  Biso   1.000  Zn
  Zn10     1.0000 0.34797  0.99376  0.33002  Biso   1.000  Zn
  Zn11     1.0000 0.34797  0.16799  0.33002  Biso   1.000  Zn
  Zn12     1.0000 0.76937  0.75222  0.74017  Biso   1.000  Zn
  Zn13     1.0000 0.76933  0.57791  0.91460  Biso   1.000  Zn
  Zn14     1.0000 0.94337  0.57817  0.74004  Biso   1.000  Zn
  Zn15     1.0000 0.34801  0.16807  0.15559  Biso   1.000  Zn
  Zn16     1.0000 0.17397  0.16781  0.33015  Biso   1.000  Zn
  H13      1.0000 0.59882  0.42075  0.10387  Biso   1.000  H
  H14      1.0000 0.59787  0.42230  0.87701  Biso   1.000  H
  H15      1.0000 0.59497  0.71489  0.58532  Biso   1.000  H
  H16      1.0000 0.51852  0.02968  0.96632  Biso   1.000  H
  H17      1.0000 0.51947  0.80342  0.19318  Biso   1.000  H
  H18      1.0000 0.52237  0.80141  0.48487  Biso   1.000  H
  H19      1.0000 0.51852  0.32523  0.96632  Biso   1.000  H
  H20      1.0000 0.51947  0.32368  0.19318  Biso   1.000  H
  H21      1.0000 0.52237  0.03109  0.48487  Biso   1.000  H
  H22      1.0000 0.59882  0.71631  0.10387  Biso   1.000  H
  H23      1.0000 0.59787  0.94257  0.87701  Biso   1.000  H
  H24      1.0000 0.59497  0.94457  0.58532  Biso   1.000  H
  C49      1.0000 0.68186  0.48952  0.91908  Biso   1.000  C
  C50      1.0000 0.61762  0.42478  0.97855  Biso   1.000  C
  C51      1.0000 0.58311  0.39927  0.07741  Biso   1.000  C
  C52      1.0000 0.58316  0.40072  0.94046  Biso   1.000  C
  C53      1.0000 0.94429  0.49013  0.65245  Biso   1.000  C
  C54      1.0000 0.58154  0.77824  0.56155  Biso   1.000  C
  C55      1.0000 0.43548  0.99670  0.15111  Biso   1.000  C
  C56      1.0000 0.49971  0.92719  0.09163  Biso   1.000  C
  C57      1.0000 0.53423  0.96603  0.99278  Biso   1.000  C
  C58      1.0000 0.53418  0.83057  0.12972  Biso   1.000  C
  C59      1.0000 0.17305  0.99311  0.41774  Biso   1.000  C
  C60      1.0000 0.53580  0.82757  0.50864  Biso   1.000  C
  C61      1.0000 0.43548  0.25646  0.15111  Biso   1.000  C
  C62      1.0000 0.49972  0.32120  0.09163  Biso   1.000  C
  C63      1.0000 0.53423  0.34671  0.99278  Biso   1.000  C
  C64      1.0000 0.53418  0.34527  0.12972  Biso   1.000  C
  C65      1.0000 0.17305  0.25585  0.41774  Biso   1.000  C
  C66      1.0000 0.53579  0.96775  0.50864  Biso   1.000  C
  C67      1.0000 0.68186  0.74928  0.91908  Biso   1.000  C
  C68      1.0000 0.61762  0.81879  0.97855  Biso   1.000  C
  C69      1.0000 0.58311  0.77996  0.07741  Biso   1.000  C
  C70      1.0000 0.58315  0.91541  0.94046  Biso   1.000  C
  C71      1.0000 0.94429  0.75287  0.65245  Biso   1.000  C
  C72      1.0000 0.58154  0.91842  0.56155  Biso   1.000  C
  C73      1.0000 0.94232  0.48923  0.91898  Biso   1.000  C
  C74      1.0000 0.67847  0.75397  0.65334  Biso   1.000  C
  C75      1.0000 0.61740  0.81901  0.58432  Biso   1.000  C
  C76      1.0000 0.17502  0.25676  0.15121  Biso   1.000  C
  C77      1.0000 0.43887  0.99202  0.41684  Biso   1.000  C
  C78      1.0000 0.49993  0.92697  0.48586  Biso   1.000  C
  O27      1.0000 0.69937  0.50583  0.96304  Biso   1.000  O
  O28      1.0000 0.69737  0.50504  0.83614  Biso   1.000  O
  O29      1.0000 0.99362  0.50565  0.66876  Biso   1.000  O
  O30      1.0000 0.86304  0.50545  0.66866  Biso   1.000  O
  O31      1.0000 0.69816  0.67222  0.66707  Biso   1.000  O
  O32      1.0000 0.41797  0.07447  0.10715  Biso   1.000  O
  O33      1.0000 0.41997  0.94479  0.23405  Biso   1.000  O
  O34      1.0000 0.12372  0.07426  0.40143  Biso   1.000  O
  O35      1.0000 0.25430  0.94339  0.40153  Biso   1.000  O
  O36      1.0000 0.41918  0.94368  0.40312  Biso   1.000  O
  O37      1.0000 0.41797  0.24015  0.10715  Biso   1.000  O
  O38      1.0000 0.41997  0.24094  0.23405  Biso   1.000  O
  O39      1.0000 0.12372  0.24034  0.40143  Biso   1.000  O
  O40      1.0000 0.25430  0.24054  0.40153  Biso   1.000  O
  O41      1.0000 0.41918  0.07376  0.40312  Biso   1.000  O
  O42      1.0000 0.69937  0.67151  0.96304  Biso   1.000  O
  O43      1.0000 0.69737  0.80120  0.83614  Biso   1.000  O
  O44      1.0000 0.99362  0.67172  0.66876  Biso   1.000  O
  O45      1.0000 0.86304  0.80260  0.66866  Biso   1.000  O
  O46      1.0000 0.69816  0.80230  0.66707  Biso   1.000  O
  O47      1.0000 0.81144  0.62289  0.78253  Biso   1.000  O
  O48      1.0000 0.86336  0.50593  0.96453  Biso   1.000  O
  O49      1.0000 0.99333  0.50604  0.83435  Biso   1.000  O
  O50      1.0000 0.30590  0.12309  0.28766  Biso   1.000  O
  O51      1.0000 0.25398  0.24005  0.10566  Biso   1.000  O
