data_image0
_cell_length_a       18.2016
_cell_length_b       18.2016
_cell_length_c       18.2016
_cell_angle_alpha    60
_cell_angle_beta     60
_cell_angle_gamma    60

_symmetry_space_group_name_H-M    "P 1"
_symmetry_int_tables_number       1

loop_
  _symmetry_equiv_pos_as_xyz
  'x, y, z'

loop_
  _atom_site_label
  _atom_site_occupancy
  _atom_site_fract_x
  _atom_site_fract_y
  _atom_site_fract_z
  _atom_site_thermal_displace_type
  _atom_site_B_iso_or_equiv
  _atom_site_type_symbol
  C1       1.0000 0.54338  0.36986  0.54338  Biso   1.000  C
  C2       1.0000 0.36986  0.54338  0.54338  Biso   1.000  C
  C3       1.0000 0.54338  0.54338  0.54338  Biso   1.000  C
  C4       1.0000 0.54338  0.54338  0.36986  Biso   1.000  C
  C5       1.0000 0.13029  0.95657  0.95657  Biso   1.000  C
  C6       1.0000 0.95657  0.13029  0.95657  Biso   1.000  C
  C7       1.0000 0.95657  0.95657  0.13029  Biso   1.000  C
  C8       1.0000 0.95657  0.95657  0.95657  Biso   1.000  C
  C9       1.0000 0.31480  0.09680  0.79420  Biso   1.000  C
  C10      1.0000 0.09680  0.31480  0.79420  Biso   1.000  C
  C11      1.0000 0.79420  0.79420  0.31480  Biso   1.000  C
  C12      1.0000 0.79420  0.79420  0.09680  Biso   1.000  C
  C13      1.0000 0.31480  0.79420  0.79420  Biso   1.000  C
  C14      1.0000 0.09680  0.79420  0.79420  Biso   1.000  C
  C15      1.0000 0.79420  0.31480  0.09680  Biso   1.000  C
  C16      1.0000 0.79420  0.09680  0.31480  Biso   1.000  C
  C17      1.0000 0.31480  0.79420  0.09680  Biso   1.000  C
  C18      1.0000 0.09680  0.79420  0.31480  Biso   1.000  C
  C19      1.0000 0.79420  0.09680  0.79420  Biso   1.000  C
  C20      1.0000 0.79420  0.31480  0.79420  Biso   1.000  C
  C21      1.0000 0.33050  0.21250  0.72850  Biso   1.000  C
  C22      1.0000 0.28810  0.15890  0.77650  Biso   1.000  C
  C23      1.0000 0.21250  0.33050  0.72850  Biso   1.000  C
  C24      1.0000 0.15890  0.28810  0.77650  Biso   1.000  C
  C25      1.0000 0.72850  0.72850  0.33050  Biso   1.000  C
  C26      1.0000 0.77650  0.77650  0.28810  Biso   1.000  C
  C27      1.0000 0.72850  0.72850  0.21250  Biso   1.000  C
  C28      1.0000 0.77650  0.77650  0.15890  Biso   1.000  C
  C29      1.0000 0.33050  0.72850  0.72850  Biso   1.000  C
  C30      1.0000 0.28810  0.77650  0.77650  Biso   1.000  C
  C31      1.0000 0.21250  0.72850  0.72850  Biso   1.000  C
  C32      1.0000 0.15890  0.77650  0.77650  Biso   1.000  C
  C33      1.0000 0.72850  0.33050  0.21250  Biso   1.000  C
  C34      1.0000 0.77650  0.28810  0.15890  Biso   1.000  C
  C35      1.0000 0.72850  0.21250  0.33050  Biso   1.000  C
  C36      1.0000 0.77650  0.15890  0.28810  Biso   1.000  C
  C37      1.0000 0.33050  0.72850  0.21250  Biso   1.000  C
  C38      1.0000 0.28810  0.77650  0.15890  Biso   1.000  C
  C39      1.0000 0.21250  0.72850  0.33050  Biso   1.000  C
  C40      1.0000 0.15890  0.77650  0.28810  Biso   1.000  C
  C41      1.0000 0.72850  0.21250  0.72850  Biso   1.000  C
  C42      1.0000 0.77650  0.15890  0.77650  Biso   1.000  C
  C43      1.0000 0.72850  0.33050  0.72850  Biso   1.000  C
  C44      1.0000 0.77650  0.28810  0.77650  Biso   1.000  C
  C45      1.0000 0.30490  0.30490  0.69510  Biso   1.000  C
  C46      1.0000 0.20070  0.20070  0.79930  Biso   1.000  C
  C47      1.0000 0.13930  0.13930  0.86070  Biso   1.000  C
  C48      1.0000 0.36170  0.36170  0.63830  Biso   1.000  C
  C49      1.0000 0.69510  0.69510  0.30490  Biso   1.000  C
  C50      1.0000 0.79930  0.79930  0.20070  Biso   1.000  C
  C51      1.0000 0.86070  0.86070  0.13930  Biso   1.000  C
  C52      1.0000 0.63830  0.63830  0.36170  Biso   1.000  C
  C53      1.0000 0.30490  0.69510  0.69510  Biso   1.000  C
  C54      1.0000 0.20070  0.79930  0.79930  Biso   1.000  C
  C55      1.0000 0.13930  0.86070  0.86070  Biso   1.000  C
  C56      1.0000 0.36170  0.63830  0.63830  Biso   1.000  C
  C57      1.0000 0.69510  0.30490  0.30490  Biso   1.000  C
  C58      1.0000 0.79930  0.20070  0.20070  Biso   1.000  C
  C59      1.0000 0.86070  0.13930  0.13930  Biso   1.000  C
  C60      1.0000 0.63830  0.36170  0.36170  Biso   1.000  C
  C61      1.0000 0.30490  0.69510  0.30490  Biso   1.000  C
  C62      1.0000 0.20070  0.79930  0.20070  Biso   1.000  C
  C63      1.0000 0.13930  0.86070  0.13930  Biso   1.000  C
  C64      1.0000 0.36170  0.63830  0.36170  Biso   1.000  C
  C65      1.0000 0.69510  0.30490  0.69510  Biso   1.000  C
  C66      1.0000 0.79930  0.20070  0.79930  Biso   1.000  C
  C67      1.0000 0.86070  0.13930  0.86070  Biso   1.000  C
  C68      1.0000 0.63830  0.36170  0.63830  Biso   1.000  C
  C69      1.0000 0.17850  0.05170  0.88490  Biso   1.000  C
  C70      1.0000 0.44150  0.32470  0.61690  Biso   1.000  C
  C71      1.0000 0.05170  0.17850  0.88490  Biso   1.000  C
  C72      1.0000 0.32470  0.44150  0.61690  Biso   1.000  C
  C73      1.0000 0.88490  0.88490  0.17850  Biso   1.000  C
  C74      1.0000 0.61690  0.61690  0.44150  Biso   1.000  C
  C75      1.0000 0.88490  0.88490  0.05170  Biso   1.000  C
  C76      1.0000 0.61690  0.61690  0.32470  Biso   1.000  C
  C77      1.0000 0.17850  0.88490  0.88490  Biso   1.000  C
  C78      1.0000 0.44150  0.61690  0.61690  Biso   1.000  C
  C79      1.0000 0.05170  0.88490  0.88490  Biso   1.000  C
  C80      1.0000 0.32470  0.61690  0.61690  Biso   1.000  C
  C81      1.0000 0.88490  0.17850  0.05170  Biso   1.000  C
  C82      1.0000 0.61690  0.44150  0.32470  Biso   1.000  C
  C83      1.0000 0.88490  0.05170  0.17850  Biso   1.000  C
  C84      1.0000 0.61690  0.32470  0.44150  Biso   1.000  C
  C85      1.0000 0.17850  0.88490  0.05170  Biso   1.000  C
  C86      1.0000 0.44150  0.61690  0.32470  Biso   1.000  C
  C87      1.0000 0.05170  0.88490  0.17850  Biso   1.000  C
  C88      1.0000 0.32470  0.61690  0.44150  Biso   1.000  C
  C89      1.0000 0.88490  0.05170  0.88490  Biso   1.000  C
  C90      1.0000 0.61690  0.32470  0.61690  Biso   1.000  C
  C91      1.0000 0.88490  0.17850  0.88490  Biso   1.000  C
  C92      1.0000 0.61690  0.44150  0.61690  Biso   1.000  C
  C93      1.0000 0.00000  0.00000  0.00000  Biso   1.000  C
  C94      1.0000 0.50000  0.50000  0.50000  Biso   1.000  C
  O1       1.0000 0.93419  0.57799  0.74017  Biso   1.000  O
  O2       1.0000 0.34488  0.98867  0.32934  Biso   1.000  O
  O3       1.0000 0.16951  0.16404  0.32934  Biso   1.000  O
  O4       1.0000 0.75882  0.75336  0.74017  Biso   1.000  O
  O5       1.0000 0.75848  0.57765  0.91575  Biso   1.000  O
  O6       1.0000 0.75867  0.57784  0.74007  Biso   1.000  O
  O7       1.0000 0.34522  0.16438  0.15376  Biso   1.000  O
  O8       1.0000 0.34502  0.16419  0.32944  Biso   1.000  O
  O9       1.0000 0.59829  0.93071  0.88413  Biso   1.000  O
  O10      1.0000 0.59506  0.71807  0.09643  Biso   1.000  O
  O11      1.0000 0.59921  0.92962  0.57957  Biso   1.000  O
  O12      1.0000 0.59519  0.72060  0.57727  Biso   1.000  O
  O13      1.0000 0.11326  0.71860  0.58208  Biso   1.000  O
  O14      1.0000 0.99215  0.32458  0.18538  Biso   1.000  O
  O15      1.0000 0.20480  0.32780  0.97308  Biso   1.000  O
  O16      1.0000 0.99324  0.32366  0.48994  Biso   1.000  O
  O17      1.0000 0.20226  0.32767  0.49224  Biso   1.000  O
  O18      1.0000 0.20426  0.80960  0.48743  Biso   1.000  O
  O19      1.0000 0.50541  0.81132  0.18538  Biso   1.000  O
  O20      1.0000 0.50864  0.02396  0.97308  Biso   1.000  O
  O21      1.0000 0.50449  0.81241  0.48994  Biso   1.000  O
  O22      1.0000 0.50851  0.02143  0.49224  Biso   1.000  O
  O23      1.0000 0.99044  0.02343  0.48743  Biso   1.000  O
  O24      1.0000 0.11154  0.41745  0.88413  Biso   1.000  O
  O25      1.0000 0.89890  0.41423  0.09643  Biso   1.000  O
  O26      1.0000 0.11046  0.41837  0.57957  Biso   1.000  O
  O27      1.0000 0.90144  0.41436  0.57727  Biso   1.000  O
  O28      1.0000 0.89944  0.93243  0.58208  Biso   1.000  O
  O29      1.0000 0.59638  0.41555  0.88202  Biso   1.000  O
  O30      1.0000 0.59527  0.41443  0.09874  Biso   1.000  O
  O31      1.0000 0.50732  0.32648  0.18748  Biso   1.000  O
  O32      1.0000 0.50843  0.32760  0.97077  Biso   1.000  O
  O33      1.0000 0.66436  0.76190  0.92063  Biso   1.000  O
  O34      1.0000 0.60449  0.82016  0.98201  Biso   1.000  O
  O35      1.0000 0.57954  0.90493  0.94651  Biso   1.000  O
  O36      1.0000 0.57832  0.78034  0.07036  Biso   1.000  O
  O37      1.0000 0.66558  0.75871  0.64275  Biso   1.000  O
  O38      1.0000 0.60813  0.81737  0.58729  Biso   1.000  O
  O39      1.0000 0.58116  0.90335  0.56152  Biso   1.000  O
  O40      1.0000 0.57835  0.78278  0.55972  Biso   1.000  O
  O41      1.0000 0.08709  0.78087  0.56192  Biso   1.000  O
  O42      1.0000 0.16097  0.25850  0.14888  Biso   1.000  O
  O43      1.0000 0.10271  0.31837  0.08750  Biso   1.000  O
  O44      1.0000 0.01793  0.34333  0.12300  Biso   1.000  O
  O45      1.0000 0.14252  0.34454  0.99915  Biso   1.000  O
  O46      1.0000 0.16416  0.25728  0.42676  Biso   1.000  O
  O47      1.0000 0.10549  0.31474  0.48221  Biso   1.000  O
  O48      1.0000 0.01951  0.34171  0.50799  Biso   1.000  O
  O49      1.0000 0.14009  0.34452  0.50979  Biso   1.000  O
  O50      1.0000 0.14199  0.83577  0.50759  Biso   1.000  O
  O51      1.0000 0.43934  0.98013  0.14888  Biso   1.000  O
  O52      1.0000 0.49921  0.92187  0.08750  Biso   1.000  O
  O53      1.0000 0.52416  0.83710  0.12300  Biso   1.000  O
  O54      1.0000 0.52538  0.96169  0.99915  Biso   1.000  O
  O55      1.0000 0.43812  0.98332  0.42676  Biso   1.000  O
  O56      1.0000 0.49557  0.92466  0.48221  Biso   1.000  O
  O57      1.0000 0.52254  0.83868  0.50799  Biso   1.000  O
  O58      1.0000 0.52535  0.95925  0.50979  Biso   1.000  O
  O59      1.0000 0.01661  0.96116  0.50759  Biso   1.000  O
  O60      1.0000 0.94273  0.48353  0.92063  Biso   1.000  O
  O61      1.0000 0.00099  0.42366  0.98201  Biso   1.000  O
  O62      1.0000 0.08577  0.39870  0.94651  Biso   1.000  O
  O63      1.0000 0.96118  0.39749  0.07036  Biso   1.000  O
  O64      1.0000 0.93954  0.48475  0.64275  Biso   1.000  O
  O65      1.0000 0.99820  0.42729  0.58729  Biso   1.000  O
  O66      1.0000 0.08419  0.40032  0.56152  Biso   1.000  O
  O67      1.0000 0.96361  0.39751  0.55972  Biso   1.000  O
  O68      1.0000 0.96171  0.90626  0.56192  Biso   1.000  O
  O69      1.0000 0.66356  0.48273  0.92745  Biso   1.000  O
  O70      1.0000 0.60620  0.42537  0.97980  Biso   1.000  O
  O71      1.0000 0.57893  0.39809  0.94420  Biso   1.000  O
  O72      1.0000 0.57772  0.39688  0.07156  Biso   1.000  O
  O73      1.0000 0.93773  0.75690  0.65077  Biso   1.000  O
  O74      1.0000 0.99960  0.81877  0.58719  Biso   1.000  O
  O75      1.0000 0.44014  0.25930  0.14206  Biso   1.000  O
  O76      1.0000 0.49750  0.31666  0.08971  Biso   1.000  O
  O77      1.0000 0.52477  0.34394  0.12531  Biso   1.000  O
  O78      1.0000 0.52598  0.34515  0.99795  Biso   1.000  O
  O79      1.0000 0.16597  0.98513  0.41874  Biso   1.000  O
  O80      1.0000 0.10409  0.92326  0.48232  Biso   1.000  O
  O81      1.0000 0.68381  0.67626  0.96666  Biso   1.000  O
  O82      1.0000 0.68593  0.80593  0.83620  Biso   1.000  O
  O83      1.0000 0.68243  0.67527  0.66933  Biso   1.000  O
  O84      1.0000 0.68533  0.80293  0.66531  Biso   1.000  O
  O85      1.0000 0.98386  0.67427  0.66812  Biso   1.000  O
  O86      1.0000 0.24661  0.23905  0.10285  Biso   1.000  O
  O87      1.0000 0.11694  0.23693  0.23331  Biso   1.000  O
  O88      1.0000 0.24759  0.24044  0.40018  Biso   1.000  O
  O89      1.0000 0.11994  0.23753  0.40420  Biso   1.000  O
  O90      1.0000 0.24860  0.93900  0.40139  Biso   1.000  O
  O91      1.0000 0.41989  0.06577  0.10285  Biso   1.000  O
  O92      1.0000 0.41777  0.93610  0.23331  Biso   1.000  O
  O93      1.0000 0.42127  0.06676  0.40018  Biso   1.000  O
  O94      1.0000 0.41836  0.93910  0.40420  Biso   1.000  O
  O95      1.0000 0.11984  0.06776  0.40139  Biso   1.000  O
  O96      1.0000 0.85709  0.50298  0.96666  Biso   1.000  O
  O97      1.0000 0.98676  0.50510  0.83620  Biso   1.000  O
  O98      1.0000 0.85611  0.50159  0.66933  Biso   1.000  O
  O99      1.0000 0.98376  0.50450  0.66531  Biso   1.000  O
  O100     1.0000 0.85510  0.80303  0.66812  Biso   1.000  O
  O101     1.0000 0.80275  0.62192  0.78435  Biso   1.000  O
  O102     1.0000 0.68482  0.50399  0.96596  Biso   1.000  O
  O103     1.0000 0.68252  0.50169  0.84422  Biso   1.000  O
  O104     1.0000 0.30095  0.12011  0.28516  Biso   1.000  O
  O105     1.0000 0.41888  0.23804  0.10355  Biso   1.000  O
