data_image0
_cell_length_a       18.0897
_cell_length_b       18.0897
_cell_length_c       18.0897
_cell_angle_alpha    60
_cell_angle_beta     60
_cell_angle_gamma    60

_symmetry_space_group_name_H-M    "P 1"
_symmetry_int_tables_number       1

loop_
  _symmetry_equiv_pos_as_xyz
  'x, y, z'

loop_
  _atom_site_label
  _atom_site_occupancy
  _atom_site_fract_x
  _atom_site_fract_y
  _atom_site_fract_z
  _atom_site_thermal_displace_type
  _atom_site_B_iso_or_equiv
  _atom_site_type_symbol
  Zn1      1.0000 0.38110  0.20630  0.20630  Biso   1.000  Zn
  Zn2      1.0000 0.20630  0.38110  0.20630  Biso   1.000  Zn
  Zn3      1.0000 0.20630  0.20630  0.38110  Biso   1.000  Zn
  Zn4      1.0000 0.20630  0.20630  0.20630  Biso   1.000  Zn
  Zn5      1.0000 0.79370  0.61890  0.79370  Biso   1.000  Zn
  Zn6      1.0000 0.61890  0.79370  0.79370  Biso   1.000  Zn
  Zn7      1.0000 0.79370  0.79370  0.61890  Biso   1.000  Zn
  Zn8      1.0000 0.79370  0.79370  0.79370  Biso   1.000  Zn
  H1       1.0000 0.35200  0.04240  0.56320  Biso   1.000  H
  H2       1.0000 0.04240  0.35200  0.04240  Biso   1.000  H
  H3       1.0000 0.56320  0.04240  0.35200  Biso   1.000  H
  H4       1.0000 0.04240  0.56320  0.04240  Biso   1.000  H
  H5       1.0000 0.35200  0.56320  0.04240  Biso   1.000  H
  H6       1.0000 0.04240  0.04240  0.56320  Biso   1.000  H
  H7       1.0000 0.56320  0.35200  0.04240  Biso   1.000  H
  H8       1.0000 0.04240  0.04240  0.35200  Biso   1.000  H
  H9       1.0000 0.35200  0.04240  0.04240  Biso   1.000  H
  H10      1.0000 0.04240  0.56320  0.35200  Biso   1.000  H
  H11      1.0000 0.56320  0.04240  0.04240  Biso   1.000  H
  H12      1.0000 0.04240  0.35200  0.56320  Biso   1.000  H
  H13      1.0000 0.95760  0.64800  0.43680  Biso   1.000  H
  H14      1.0000 0.64800  0.95760  0.95760  Biso   1.000  H
  H15      1.0000 0.95760  0.43680  0.64800  Biso   1.000  H
  H16      1.0000 0.43680  0.95760  0.95760  Biso   1.000  H
  H17      1.0000 0.43680  0.64800  0.95760  Biso   1.000  H
  H18      1.0000 0.95760  0.95760  0.43680  Biso   1.000  H
  H19      1.0000 0.64800  0.43680  0.95760  Biso   1.000  H
  H20      1.0000 0.95760  0.95760  0.64800  Biso   1.000  H
  H21      1.0000 0.95760  0.64800  0.95760  Biso   1.000  H
  H22      1.0000 0.43680  0.95760  0.64800  Biso   1.000  H
  H23      1.0000 0.95760  0.43680  0.95760  Biso   1.000  H
  H24      1.0000 0.64800  0.95760  0.43680  Biso   1.000  H
  C1       1.0000 0.41430  0.02590  0.53390  Biso   1.000  C
  C2       1.0000 0.02590  0.41430  0.02590  Biso   1.000  C
  C3       1.0000 0.53390  0.02590  0.41430  Biso   1.000  C
  C4       1.0000 0.02590  0.53390  0.02590  Biso   1.000  C
  C5       1.0000 0.41430  0.53390  0.02590  Biso   1.000  C
  C6       1.0000 0.02590  0.02590  0.53390  Biso   1.000  C
  C7       1.0000 0.53390  0.41430  0.02590  Biso   1.000  C
  C8       1.0000 0.02590  0.02590  0.41430  Biso   1.000  C
  C9       1.0000 0.41430  0.02590  0.02590  Biso   1.000  C
  C10      1.0000 0.02590  0.53390  0.41430  Biso   1.000  C
  C11      1.0000 0.53390  0.02590  0.02590  Biso   1.000  C
  C12      1.0000 0.02590  0.41430  0.53390  Biso   1.000  C
  C13      1.0000 0.97410  0.58570  0.46610  Biso   1.000  C
  C14      1.0000 0.58570  0.97410  0.97410  Biso   1.000  C
  C15      1.0000 0.97410  0.46610  0.58570  Biso   1.000  C
  C16      1.0000 0.46610  0.97410  0.97410  Biso   1.000  C
  C17      1.0000 0.46610  0.58570  0.97410  Biso   1.000  C
  C18      1.0000 0.97410  0.97410  0.46610  Biso   1.000  C
  C19      1.0000 0.58570  0.46610  0.97410  Biso   1.000  C
  C20      1.0000 0.97410  0.97410  0.58570  Biso   1.000  C
  C21      1.0000 0.97410  0.58570  0.97410  Biso   1.000  C
  C22      1.0000 0.46610  0.97410  0.58570  Biso   1.000  C
  C23      1.0000 0.97410  0.46610  0.97410  Biso   1.000  C
  C24      1.0000 0.58570  0.97410  0.46610  Biso   1.000  C
  C25      1.0000 0.38580  0.11420  0.38580  Biso   1.000  C
  C26      1.0000 0.44340  0.05660  0.44340  Biso   1.000  C
  C27      1.0000 0.11420  0.38580  0.11420  Biso   1.000  C
  C28      1.0000 0.05660  0.44340  0.05660  Biso   1.000  C
  C29      1.0000 0.38580  0.38580  0.11420  Biso   1.000  C
  C30      1.0000 0.44340  0.44340  0.05660  Biso   1.000  C
  C31      1.0000 0.11420  0.11420  0.38580  Biso   1.000  C
  C32      1.0000 0.05660  0.05660  0.44340  Biso   1.000  C
  C33      1.0000 0.38580  0.11420  0.11420  Biso   1.000  C
  C34      1.0000 0.44340  0.05660  0.05660  Biso   1.000  C
  C35      1.0000 0.11420  0.38580  0.38580  Biso   1.000  C
  C36      1.0000 0.05660  0.44340  0.44340  Biso   1.000  C
  C37      1.0000 0.88580  0.61420  0.61420  Biso   1.000  C
  C38      1.0000 0.94340  0.55660  0.55660  Biso   1.000  C
  C39      1.0000 0.61420  0.88580  0.88580  Biso   1.000  C
  C40      1.0000 0.55660  0.94340  0.94340  Biso   1.000  C
  C41      1.0000 0.61420  0.61420  0.88580  Biso   1.000  C
  C42      1.0000 0.55660  0.55660  0.94340  Biso   1.000  C
  C43      1.0000 0.88580  0.88580  0.61420  Biso   1.000  C
  C44      1.0000 0.94340  0.94340  0.55660  Biso   1.000  C
  C45      1.0000 0.88580  0.61420  0.88580  Biso   1.000  C
  C46      1.0000 0.94340  0.55660  0.94340  Biso   1.000  C
  C47      1.0000 0.61420  0.88580  0.61420  Biso   1.000  C
  C48      1.0000 0.55660  0.94340  0.55660  Biso   1.000  C
  O1       1.0000 0.25000  0.25000  0.25000  Biso   1.000  O
  O2       1.0000 0.75000  0.75000  0.75000  Biso   1.000  O
  O3       1.0000 0.42610  0.13570  0.30250  Biso   1.000  O
  O4       1.0000 0.13570  0.42610  0.13570  Biso   1.000  O
  O5       1.0000 0.30250  0.13570  0.42610  Biso   1.000  O
  O6       1.0000 0.13570  0.30250  0.13570  Biso   1.000  O
  O7       1.0000 0.42610  0.30250  0.13570  Biso   1.000  O
  O8       1.0000 0.13570  0.13570  0.30250  Biso   1.000  O
  O9       1.0000 0.30250  0.42610  0.13570  Biso   1.000  O
  O10      1.0000 0.13570  0.13570  0.42610  Biso   1.000  O
  O11      1.0000 0.42610  0.13570  0.13570  Biso   1.000  O
  O12      1.0000 0.13570  0.30250  0.42610  Biso   1.000  O
  O13      1.0000 0.30250  0.13570  0.13570  Biso   1.000  O
  O14      1.0000 0.13570  0.42610  0.30250  Biso   1.000  O
  O15      1.0000 0.86430  0.57390  0.69750  Biso   1.000  O
  O16      1.0000 0.57390  0.86430  0.86430  Biso   1.000  O
  O17      1.0000 0.86430  0.69750  0.57390  Biso   1.000  O
  O18      1.0000 0.69750  0.86430  0.86430  Biso   1.000  O
  O19      1.0000 0.69750  0.57390  0.86430  Biso   1.000  O
  O20      1.0000 0.86430  0.86430  0.69750  Biso   1.000  O
  O21      1.0000 0.57390  0.69750  0.86430  Biso   1.000  O
  O22      1.0000 0.86430  0.86430  0.57390  Biso   1.000  O
  O23      1.0000 0.86430  0.57390  0.86430  Biso   1.000  O
  O24      1.0000 0.69750  0.86430  0.57390  Biso   1.000  O
  O25      1.0000 0.86430  0.69750  0.86430  Biso   1.000  O
  O26      1.0000 0.57390  0.86430  0.69750  Biso   1.000  O
  Zn9      1.0000 0.82920  0.00000  0.00000  Biso   1.000  Zn
  Zn10     1.0000 0.41693  0.59561  0.59760  Biso   1.000  Zn
  Zn11     1.0000 0.82872  0.17617  0.00069  Biso   1.000  Zn
  Zn12     1.0000 0.82887  0.00025  0.17632  Biso   1.000  Zn
  Zn13     1.0000 0.00478  0.00069  0.00069  Biso   1.000  Zn
  Zn14     1.0000 0.24135  0.59492  0.59691  Biso   1.000  Zn
  Zn15     1.0000 0.41727  0.59536  0.42128  Biso   1.000  Zn
  Zn16     1.0000 0.41742  0.41944  0.59691  Biso   1.000  Zn
  H25      1.0000 0.66064  0.13867  0.36519  Biso   1.000  H
  H26      1.0000 0.19317  0.83358  0.13970  Biso   1.000  H
  H27      1.0000 0.96687  0.36530  0.83379  Biso   1.000  H
  H28      1.0000 0.27882  0.76260  0.23241  Biso   1.000  H
  H29      1.0000 0.58568  0.23108  0.45790  Biso   1.000  H
  H30      1.0000 0.05322  0.45561  0.76381  Biso   1.000  H
  H31      1.0000 0.58549  0.45694  0.23241  Biso   1.000  H
  H32      1.0000 0.05296  0.76203  0.45790  Biso   1.000  H
  H33      1.0000 0.27927  0.23031  0.76381  Biso   1.000  H
  H34      1.0000 0.96731  0.83302  0.36519  Biso   1.000  H
  H35      1.0000 0.66045  0.36453  0.13970  Biso   1.000  H
  H36      1.0000 0.19292  0.14000  0.83379  Biso   1.000  H
  H37      1.0000 0.66851  0.35848  0.84009  Biso   1.000  H
  H38      1.0000 0.66280  0.14101  0.83287  Biso   1.000  H
  H39      1.0000 0.66894  0.83933  0.35838  Biso   1.000  H
  H40      1.0000 0.66306  0.83266  0.14071  Biso   1.000  H
  H41      1.0000 0.18808  0.84063  0.84009  Biso   1.000  H
  H42      1.0000 0.97141  0.83343  0.83287  Biso   1.000  H
  H43      1.0000 0.05805  0.75498  0.75751  Biso   1.000  H
  H44      1.0000 0.27473  0.76218  0.76473  Biso   1.000  H
  H45      1.0000 0.57720  0.75628  0.23923  Biso   1.000  H
  H46      1.0000 0.58308  0.76295  0.45689  Biso   1.000  H
  H47      1.0000 0.57763  0.23713  0.75751  Biso   1.000  H
  H48      1.0000 0.58334  0.45460  0.76473  Biso   1.000  H
  C49      1.0000 0.64530  0.20131  0.33814  Biso   1.000  C
  C50      1.0000 0.16598  0.81829  0.20232  Biso   1.000  C
  C51      1.0000 0.02950  0.33832  0.81864  Biso   1.000  C
  C52      1.0000 0.21620  0.77766  0.25946  Biso   1.000  C
  C53      1.0000 0.60095  0.25825  0.39528  Biso   1.000  C
  C54      1.0000 0.08047  0.39300  0.77896  Biso   1.000  C
  C55      1.0000 0.60084  0.39430  0.25946  Biso   1.000  C
  C56      1.0000 0.08015  0.77732  0.39528  Biso   1.000  C
  C57      1.0000 0.21663  0.25729  0.77896  Biso   1.000  C
  C58      1.0000 0.02993  0.81795  0.33814  Biso   1.000  C
  C59      1.0000 0.64519  0.33736  0.20232  Biso   1.000  C
  C60      1.0000 0.16566  0.20261  0.81864  Biso   1.000  C
  C61      1.0000 0.73255  0.18716  0.90363  Biso   1.000  C
  C62      1.0000 0.67441  0.24205  0.84528  Biso   1.000  C
  C63      1.0000 0.64914  0.33486  0.82037  Biso   1.000  C
  C64      1.0000 0.64578  0.20353  0.81610  Biso   1.000  C
  C65      1.0000 0.73279  0.90325  0.18707  Biso   1.000  C
  C66      1.0000 0.67474  0.84480  0.24187  Biso   1.000  C
  C67      1.0000 0.64957  0.81968  0.33469  Biso   1.000  C
  C68      1.0000 0.64610  0.81575  0.20324  Biso   1.000  C
  C69      1.0000 0.01670  0.90395  0.90363  Biso   1.000  C
  C70      1.0000 0.07199  0.84579  0.84528  Biso   1.000  C
  C71      1.0000 0.16474  0.82097  0.82037  Biso   1.000  C
  C72      1.0000 0.03388  0.81671  0.81610  Biso   1.000  C
  C73      1.0000 0.22944  0.69166  0.69397  Biso   1.000  C
  C74      1.0000 0.17414  0.74982  0.75232  Biso   1.000  C
  C75      1.0000 0.08140  0.77464  0.77723  Biso   1.000  C
  C76      1.0000 0.21226  0.77890  0.78150  Biso   1.000  C
  C77      1.0000 0.51335  0.69236  0.41053  Biso   1.000  C
  C78      1.0000 0.57139  0.75081  0.35573  Biso   1.000  C
  C79      1.0000 0.59657  0.77593  0.26291  Biso   1.000  C
  C80      1.0000 0.60003  0.77987  0.39436  Biso   1.000  C
  C81      1.0000 0.51358  0.40845  0.69397  Biso   1.000  C
  C82      1.0000 0.57172  0.35356  0.75232  Biso   1.000  C
  C83      1.0000 0.59700  0.26075  0.77723  Biso   1.000  C
  C84      1.0000 0.60036  0.39208  0.78150  Biso   1.000  C
  C85      1.0000 0.73133  0.18574  0.18636  Biso   1.000  C
  C86      1.0000 0.67821  0.23949  0.24029  Biso   1.000  C
  C87      1.0000 0.01435  0.90365  0.18636  Biso   1.000  C
  C88      1.0000 0.06810  0.85090  0.24029  Biso   1.000  C
  C89      1.0000 0.01412  0.18645  0.90404  Biso   1.000  C
  C90      1.0000 0.06777  0.24046  0.85138  Biso   1.000  C
  C91      1.0000 0.23178  0.69196  0.41124  Biso   1.000  C
  C92      1.0000 0.17804  0.74471  0.35731  Biso   1.000  C
  C93      1.0000 0.51481  0.40987  0.41124  Biso   1.000  C
  C94      1.0000 0.56792  0.35612  0.35731  Biso   1.000  C
  C95      1.0000 0.23202  0.40917  0.69356  Biso   1.000  C
  C96      1.0000 0.17836  0.35515  0.74622  Biso   1.000  C
  O27      1.0000 0.75547  0.22476  0.09668  Biso   1.000  O
  O28      1.0000 0.92466  0.92752  0.22519  Biso   1.000  O
  O29      1.0000 0.05324  0.09678  0.92802  Biso   1.000  O
  O30      1.0000 0.19276  0.66777  0.50092  Biso   1.000  O
  O31      1.0000 0.49056  0.49957  0.37241  Biso   1.000  O
  O32      1.0000 0.32172  0.37043  0.66958  Biso   1.000  O
  O33      1.0000 0.49066  0.37085  0.50092  Biso   1.000  O
  O34      1.0000 0.32148  0.66809  0.37241  Biso   1.000  O
  O35      1.0000 0.19290  0.49883  0.66958  Biso   1.000  O
  O36      1.0000 0.05338  0.92784  0.09668  Biso   1.000  O
  O37      1.0000 0.75558  0.09604  0.22519  Biso   1.000  O
  O38      1.0000 0.92441  0.22518  0.92802  Biso   1.000  O
  O39      1.0000 0.87463  0.04604  0.04620  Biso   1.000  O
  O40      1.0000 0.37150  0.54957  0.55140  Biso   1.000  O
  O41      1.0000 0.75609  0.09781  0.92681  Biso   1.000  O
  O42      1.0000 0.75494  0.22580  0.92651  Biso   1.000  O
  O43      1.0000 0.75623  0.92663  0.09771  Biso   1.000  O
  O44      1.0000 0.75519  0.92600  0.22581  Biso   1.000  O
  O45      1.0000 0.92741  0.92706  0.92681  Biso   1.000  O
  O46      1.0000 0.05499  0.92675  0.92651  Biso   1.000  O
  O47      1.0000 0.31872  0.66855  0.67079  Biso   1.000  O
  O48      1.0000 0.19115  0.66886  0.67109  Biso   1.000  O
  O49      1.0000 0.48990  0.66898  0.49989  Biso   1.000  O
  O50      1.0000 0.49094  0.66961  0.37179  Biso   1.000  O
  O51      1.0000 0.49004  0.49780  0.67079  Biso   1.000  O
