data_image0
_cell_length_a       18.0897
_cell_length_b       18.0897
_cell_length_c       18.0897
_cell_angle_alpha    60
_cell_angle_beta     60
_cell_angle_gamma    60

_symmetry_space_group_name_H-M    "P 1"
_symmetry_int_tables_number       1

loop_
  _symmetry_equiv_pos_as_xyz
  'x, y, z'

loop_
  _atom_site_label
  _atom_site_occupancy
  _atom_site_fract_x
  _atom_site_fract_y
  _atom_site_fract_z
  _atom_site_thermal_displace_type
  _atom_site_B_iso_or_equiv
  _atom_site_type_symbol
  C1       1.0000 0.38110  0.20630  0.20630  Biso   1.000  C
  C2       1.0000 0.20630  0.38110  0.20630  Biso   1.000  C
  C3       1.0000 0.20630  0.20630  0.38110  Biso   1.000  C
  C4       1.0000 0.20630  0.20630  0.20630  Biso   1.000  C
  C5       1.0000 0.79370  0.61890  0.79370  Biso   1.000  C
  C6       1.0000 0.61890  0.79370  0.79370  Biso   1.000  C
  C7       1.0000 0.79370  0.79370  0.61890  Biso   1.000  C
  C8       1.0000 0.79370  0.79370  0.79370  Biso   1.000  C
  C9       1.0000 0.35200  0.04240  0.56320  Biso   1.000  C
  C10      1.0000 0.04240  0.35200  0.04240  Biso   1.000  C
  C11      1.0000 0.56320  0.04240  0.35200  Biso   1.000  C
  C12      1.0000 0.04240  0.56320  0.04240  Biso   1.000  C
  C13      1.0000 0.35200  0.56320  0.04240  Biso   1.000  C
  C14      1.0000 0.04240  0.04240  0.56320  Biso   1.000  C
  C15      1.0000 0.56320  0.35200  0.04240  Biso   1.000  C
  C16      1.0000 0.04240  0.04240  0.35200  Biso   1.000  C
  C17      1.0000 0.35200  0.04240  0.04240  Biso   1.000  C
  C18      1.0000 0.04240  0.56320  0.35200  Biso   1.000  C
  C19      1.0000 0.56320  0.04240  0.04240  Biso   1.000  C
  C20      1.0000 0.04240  0.35200  0.56320  Biso   1.000  C
  C21      1.0000 0.95760  0.64800  0.43680  Biso   1.000  C
  C22      1.0000 0.64800  0.95760  0.95760  Biso   1.000  C
  C23      1.0000 0.95760  0.43680  0.64800  Biso   1.000  C
  C24      1.0000 0.43680  0.95760  0.95760  Biso   1.000  C
  C25      1.0000 0.43680  0.64800  0.95760  Biso   1.000  C
  C26      1.0000 0.95760  0.95760  0.43680  Biso   1.000  C
  C27      1.0000 0.64800  0.43680  0.95760  Biso   1.000  C
  C28      1.0000 0.95760  0.95760  0.64800  Biso   1.000  C
  C29      1.0000 0.95760  0.64800  0.95760  Biso   1.000  C
  C30      1.0000 0.43680  0.95760  0.64800  Biso   1.000  C
  C31      1.0000 0.95760  0.43680  0.95760  Biso   1.000  C
  C32      1.0000 0.64800  0.95760  0.43680  Biso   1.000  C
  C33      1.0000 0.41430  0.02590  0.53390  Biso   1.000  C
  C34      1.0000 0.02590  0.41430  0.02590  Biso   1.000  C
  C35      1.0000 0.53390  0.02590  0.41430  Biso   1.000  C
  C36      1.0000 0.02590  0.53390  0.02590  Biso   1.000  C
  C37      1.0000 0.41430  0.53390  0.02590  Biso   1.000  C
  C38      1.0000 0.02590  0.02590  0.53390  Biso   1.000  C
  C39      1.0000 0.53390  0.41430  0.02590  Biso   1.000  C
  C40      1.0000 0.02590  0.02590  0.41430  Biso   1.000  C
  C41      1.0000 0.41430  0.02590  0.02590  Biso   1.000  C
  C42      1.0000 0.02590  0.53390  0.41430  Biso   1.000  C
  C43      1.0000 0.53390  0.02590  0.02590  Biso   1.000  C
  C44      1.0000 0.02590  0.41430  0.53390  Biso   1.000  C
  C45      1.0000 0.97410  0.58570  0.46610  Biso   1.000  C
  C46      1.0000 0.58570  0.97410  0.97410  Biso   1.000  C
  C47      1.0000 0.97410  0.46610  0.58570  Biso   1.000  C
  C48      1.0000 0.46610  0.97410  0.97410  Biso   1.000  C
  C49      1.0000 0.46610  0.58570  0.97410  Biso   1.000  C
  C50      1.0000 0.97410  0.97410  0.46610  Biso   1.000  C
  C51      1.0000 0.58570  0.46610  0.97410  Biso   1.000  C
  C52      1.0000 0.97410  0.97410  0.58570  Biso   1.000  C
  C53      1.0000 0.97410  0.58570  0.97410  Biso   1.000  C
  C54      1.0000 0.46610  0.97410  0.58570  Biso   1.000  C
  C55      1.0000 0.97410  0.46610  0.97410  Biso   1.000  C
  C56      1.0000 0.58570  0.97410  0.46610  Biso   1.000  C
  C57      1.0000 0.38580  0.11420  0.38580  Biso   1.000  C
  C58      1.0000 0.44340  0.05660  0.44340  Biso   1.000  C
  C59      1.0000 0.11420  0.38580  0.11420  Biso   1.000  C
  C60      1.0000 0.05660  0.44340  0.05660  Biso   1.000  C
  C61      1.0000 0.38580  0.38580  0.11420  Biso   1.000  C
  C62      1.0000 0.44340  0.44340  0.05660  Biso   1.000  C
  C63      1.0000 0.11420  0.11420  0.38580  Biso   1.000  C
  C64      1.0000 0.05660  0.05660  0.44340  Biso   1.000  C
  C65      1.0000 0.38580  0.11420  0.11420  Biso   1.000  C
  C66      1.0000 0.44340  0.05660  0.05660  Biso   1.000  C
  C67      1.0000 0.11420  0.38580  0.38580  Biso   1.000  C
  C68      1.0000 0.05660  0.44340  0.44340  Biso   1.000  C
  C69      1.0000 0.88580  0.61420  0.61420  Biso   1.000  C
  C70      1.0000 0.94340  0.55660  0.55660  Biso   1.000  C
  C71      1.0000 0.61420  0.88580  0.88580  Biso   1.000  C
  C72      1.0000 0.55660  0.94340  0.94340  Biso   1.000  C
  C73      1.0000 0.61420  0.61420  0.88580  Biso   1.000  C
  C74      1.0000 0.55660  0.55660  0.94340  Biso   1.000  C
  C75      1.0000 0.88580  0.88580  0.61420  Biso   1.000  C
  C76      1.0000 0.94340  0.94340  0.55660  Biso   1.000  C
  C77      1.0000 0.88580  0.61420  0.88580  Biso   1.000  C
  C78      1.0000 0.94340  0.55660  0.94340  Biso   1.000  C
  C79      1.0000 0.61420  0.88580  0.61420  Biso   1.000  C
  C80      1.0000 0.55660  0.94340  0.55660  Biso   1.000  C
  C81      1.0000 0.25000  0.25000  0.25000  Biso   1.000  C
  C82      1.0000 0.75000  0.75000  0.75000  Biso   1.000  C
  C83      1.0000 0.42610  0.13570  0.30250  Biso   1.000  C
  C84      1.0000 0.13570  0.42610  0.13570  Biso   1.000  C
  C85      1.0000 0.30250  0.13570  0.42610  Biso   1.000  C
  C86      1.0000 0.13570  0.30250  0.13570  Biso   1.000  C
  C87      1.0000 0.42610  0.30250  0.13570  Biso   1.000  C
  C88      1.0000 0.13570  0.13570  0.30250  Biso   1.000  C
  C89      1.0000 0.30250  0.42610  0.13570  Biso   1.000  C
  C90      1.0000 0.13570  0.13570  0.42610  Biso   1.000  C
  C91      1.0000 0.42610  0.13570  0.13570  Biso   1.000  C
  C92      1.0000 0.13570  0.30250  0.42610  Biso   1.000  C
  C93      1.0000 0.30250  0.13570  0.13570  Biso   1.000  C
  C94      1.0000 0.13570  0.42610  0.30250  Biso   1.000  C
  C95      1.0000 0.86430  0.57390  0.69750  Biso   1.000  C
  C96      1.0000 0.57390  0.86430  0.86430  Biso   1.000  C
  C97      1.0000 0.86430  0.69750  0.57390  Biso   1.000  C
  C98      1.0000 0.69750  0.86430  0.86430  Biso   1.000  C
  C99      1.0000 0.69750  0.57390  0.86430  Biso   1.000  C
  C100     1.0000 0.86430  0.86430  0.69750  Biso   1.000  C
  C101     1.0000 0.57390  0.69750  0.86430  Biso   1.000  C
  C102     1.0000 0.86430  0.86430  0.57390  Biso   1.000  C
  C103     1.0000 0.86430  0.57390  0.86430  Biso   1.000  C
  C104     1.0000 0.69750  0.86430  0.57390  Biso   1.000  C
  C105     1.0000 0.86430  0.69750  0.86430  Biso   1.000  C
  C106     1.0000 0.57390  0.86430  0.69750  Biso   1.000  C
  O1       1.0000 0.37543  0.54418  0.47393  Biso   1.000  O
  O2       1.0000 0.54929  0.37031  0.47398  Biso   1.000  O
  O3       1.0000 0.54935  0.54418  0.47393  Biso   1.000  O
  O4       1.0000 0.54930  0.54422  0.30006  Biso   1.000  O
  O5       1.0000 0.13459  0.95894  0.88868  Biso   1.000  O
  O6       1.0000 0.96073  0.13281  0.88863  Biso   1.000  O
  O7       1.0000 0.96068  0.95894  0.88868  Biso   1.000  O
  O8       1.0000 0.96073  0.95889  0.06255  Biso   1.000  O
  O9       1.0000 0.21589  0.34261  0.65400  Biso   1.000  O
  O10      1.0000 0.21488  0.72447  0.65602  Biso   1.000  O
  O11      1.0000 0.21608  0.72346  0.27235  Biso   1.000  O
  O12      1.0000 0.34441  0.21411  0.65501  Biso   1.000  O
  O13      1.0000 0.72626  0.21309  0.27215  Biso   1.000  O
  O14      1.0000 0.72526  0.21430  0.65562  Biso   1.000  O
  O15      1.0000 0.73038  0.72425  0.27236  Biso   1.000  O
  O16      1.0000 0.34752  0.72627  0.65422  Biso   1.000  O
  O17      1.0000 0.73099  0.34260  0.65321  Biso   1.000  O
  O18      1.0000 0.72937  0.72526  0.14385  Biso   1.000  O
  O19      1.0000 0.73139  0.34240  0.14283  Biso   1.000  O
  O20      1.0000 0.34772  0.72588  0.14404  Biso   1.000  O
  O21      1.0000 0.29414  0.16051  0.70861  Biso   1.000  O
  O22      1.0000 0.29515  0.77865  0.70659  Biso   1.000  O
  O23      1.0000 0.29394  0.77965  0.09026  Biso   1.000  O
  O24      1.0000 0.16562  0.28901  0.70760  Biso   1.000  O
  O25      1.0000 0.78376  0.29002  0.09046  Biso   1.000  O
  O26      1.0000 0.78476  0.28882  0.70699  Biso   1.000  O
  O27      1.0000 0.77964  0.77886  0.09025  Biso   1.000  O
  O28      1.0000 0.16251  0.77684  0.70839  Biso   1.000  O
  O29      1.0000 0.77904  0.16052  0.70940  Biso   1.000  O
  O30      1.0000 0.78065  0.77785  0.21876  Biso   1.000  O
  O31      1.0000 0.77864  0.16071  0.21978  Biso   1.000  O
  O32      1.0000 0.16231  0.77724  0.21857  Biso   1.000  O
  O33      1.0000 0.30899  0.30387  0.62733  Biso   1.000  O
  O34      1.0000 0.36786  0.36274  0.56845  Biso   1.000  O
  O35      1.0000 0.70270  0.69757  0.23362  Biso   1.000  O
  O36      1.0000 0.64382  0.63870  0.29250  Biso   1.000  O
  O37      1.0000 0.20104  0.19925  0.73528  Biso   1.000  O
  O38      1.0000 0.14216  0.14037  0.79416  Biso   1.000  O
  O39      1.0000 0.80733  0.80554  0.12899  Biso   1.000  O
  O40      1.0000 0.86620  0.86442  0.07011  Biso   1.000  O
  O41      1.0000 0.30879  0.69777  0.23342  Biso   1.000  O
  O42      1.0000 0.36738  0.63918  0.29202  Biso   1.000  O
  O43      1.0000 0.70289  0.30367  0.62753  Biso   1.000  O
  O44      1.0000 0.64430  0.36226  0.56893  Biso   1.000  O
  O45      1.0000 0.20123  0.80534  0.12919  Biso   1.000  O
  O46      1.0000 0.14264  0.86393  0.07060  Biso   1.000  O
  O47      1.0000 0.80713  0.19945  0.73508  Biso   1.000  O
  O48      1.0000 0.86572  0.14085  0.79368  Biso   1.000  O
  O49      1.0000 0.30859  0.69798  0.62773  Biso   1.000  O
  O50      1.0000 0.36718  0.63938  0.56913  Biso   1.000  O
  O51      1.0000 0.70309  0.30346  0.23322  Biso   1.000  O
  O52      1.0000 0.64450  0.36206  0.29181  Biso   1.000  O
  O53      1.0000 0.20143  0.80514  0.73488  Biso   1.000  O
  O54      1.0000 0.14284  0.86373  0.79348  Biso   1.000  O
  O55      1.0000 0.80693  0.19965  0.12939  Biso   1.000  O
  O56      1.0000 0.86552  0.14106  0.07080  Biso   1.000  O
  O57      1.0000 0.32709  0.44726  0.54738  Biso   1.000  O
  O58      1.0000 0.32759  0.61602  0.37617  Biso   1.000  O
  O59      1.0000 0.32673  0.61639  0.54696  Biso   1.000  O
  O60      1.0000 0.45238  0.32197  0.54578  Biso   1.000  O
  O61      1.0000 0.62114  0.32247  0.54772  Biso   1.000  O
  O62      1.0000 0.62150  0.32160  0.37744  Biso   1.000  O
  O63      1.0000 0.62115  0.61763  0.37702  Biso   1.000  O
  O64      1.0000 0.62309  0.44642  0.54578  Biso   1.000  O
  O65      1.0000 0.45281  0.61721  0.54614  Biso   1.000  O
  O66      1.0000 0.62275  0.61602  0.25172  Biso   1.000  O
  O67      1.0000 0.45154  0.61797  0.25222  Biso   1.000  O
  O68      1.0000 0.62233  0.44768  0.25136  Biso   1.000  O
  O69      1.0000 0.18294  0.05585  0.81523  Biso   1.000  O
  O70      1.0000 0.18243  0.88709  0.98644  Biso   1.000  O
  O71      1.0000 0.18329  0.88673  0.81565  Biso   1.000  O
  O72      1.0000 0.05764  0.18115  0.81683  Biso   1.000  O
  O73      1.0000 0.88888  0.18065  0.81489  Biso   1.000  O
  O74      1.0000 0.88852  0.18151  0.98517  Biso   1.000  O
  O75      1.0000 0.88888  0.88549  0.98559  Biso   1.000  O
  O76      1.0000 0.88693  0.05669  0.81683  Biso   1.000  O
  O77      1.0000 0.05722  0.88591  0.81647  Biso   1.000  O
  O78      1.0000 0.88727  0.88709  0.11089  Biso   1.000  O
  O79      1.0000 0.05848  0.88515  0.11039  Biso   1.000  O
  O80      1.0000 0.88770  0.05543  0.11125  Biso   1.000  O
  O81      1.0000 0.50584  0.50072  0.43047  Biso   1.000  O
  O82      1.0000 0.00418  0.00239  0.93214  Biso   1.000  O
  O83      1.0000 0.18259  0.70144  0.63448  Biso   1.000  O
  O84      1.0000 0.42437  0.70473  0.63119  Biso   1.000  O
  O85      1.0000 0.32743  0.80167  0.72813  Biso   1.000  O
  O86      1.0000 0.08565  0.79838  0.73142  Biso   1.000  O
  O87      1.0000 0.70971  0.41944  0.62993  Biso   1.000  O
  O88      1.0000 0.80804  0.32111  0.72827  Biso   1.000  O
  O89      1.0000 0.18380  0.70018  0.34919  Biso   1.000  O
  O90      1.0000 0.08546  0.79852  0.25086  Biso   1.000  O
  O91      1.0000 0.42126  0.18181  0.63315  Biso   1.000  O
  O92      1.0000 0.70324  0.18080  0.34900  Biso   1.000  O
  O93      1.0000 0.80335  0.79971  0.25106  Biso   1.000  O
  O94      1.0000 0.80018  0.08386  0.25206  Biso   1.000  O
  O95      1.0000 0.70198  0.18201  0.63434  Biso   1.000  O
  O96      1.0000 0.80032  0.08367  0.73268  Biso   1.000  O
  O97      1.0000 0.42456  0.70459  0.11175  Biso   1.000  O
  O98      1.0000 0.32623  0.80293  0.01342  Biso   1.000  O
  O99      1.0000 0.80151  0.80156  0.01340  Biso   1.000  O
  O100     1.0000 0.70985  0.41926  0.11055  Biso   1.000  O
  O101     1.0000 0.80679  0.32231  0.01361  Biso   1.000  O
  O102     1.0000 0.70668  0.70340  0.11155  Biso   1.000  O
  O103     1.0000 0.08876  0.32131  0.72946  Biso   1.000  O
  O104     1.0000 0.18359  0.41946  0.63131  Biso   1.000  O
  O105     1.0000 0.32643  0.08365  0.73130  Biso   1.000  O
