data_image0
_cell_length_a       18.126
_cell_length_b       18.126
_cell_length_c       18.126
_cell_angle_alpha    60
_cell_angle_beta     60
_cell_angle_gamma    60

_symmetry_space_group_name_H-M    "P 1"
_symmetry_int_tables_number       1

loop_
  _symmetry_equiv_pos_as_xyz
  'x, y, z'

loop_
  _atom_site_label
  _atom_site_occupancy
  _atom_site_fract_x
  _atom_site_fract_y
  _atom_site_fract_z
  _atom_site_thermal_displace_type
  _atom_site_B_iso_or_equiv
  _atom_site_type_symbol
  Zn1      1.0000 0.04333  0.04333  0.04333  Biso   1.000  Zn
  Zn2      1.0000 0.04333  0.04333  0.87001  Biso   1.000  Zn
  Zn3      1.0000 0.04333  0.87001  0.04333  Biso   1.000  Zn
  Zn4      1.0000 0.87001  0.04333  0.04333  Biso   1.000  Zn
  Zn5      1.0000 0.45668  0.45668  0.62996  Biso   1.000  Zn
  Zn6      1.0000 0.45668  0.45668  0.45668  Biso   1.000  Zn
  Zn7      1.0000 0.62996  0.45668  0.45668  Biso   1.000  Zn
  Zn8      1.0000 0.45668  0.62996  0.45668  Biso   1.000  Zn
  H1       1.0000 0.29230  0.29230  0.81450  Biso   1.000  H
  H2       1.0000 0.29230  0.29230  0.60090  Biso   1.000  H
  H3       1.0000 0.81450  0.60090  0.29230  Biso   1.000  H
  H4       1.0000 0.60090  0.81450  0.29230  Biso   1.000  H
  H5       1.0000 0.29230  0.81450  0.60090  Biso   1.000  H
  H6       1.0000 0.29230  0.60090  0.81450  Biso   1.000  H
  H7       1.0000 0.81450  0.29230  0.29230  Biso   1.000  H
  H8       1.0000 0.60090  0.29230  0.29230  Biso   1.000  H
  H9       1.0000 0.29230  0.60090  0.29230  Biso   1.000  H
  H10      1.0000 0.29230  0.81450  0.29230  Biso   1.000  H
  H11      1.0000 0.81450  0.29230  0.60090  Biso   1.000  H
  H12      1.0000 0.60090  0.29230  0.81450  Biso   1.000  H
  C1       1.0000 0.22500  0.22500  0.83840  Biso   1.000  C
  C2       1.0000 0.27560  0.27560  0.78560  Biso   1.000  C
  C3       1.0000 0.22500  0.22500  0.71160  Biso   1.000  C
  C4       1.0000 0.27560  0.27560  0.66320  Biso   1.000  C
  C5       1.0000 0.83840  0.71160  0.22500  Biso   1.000  C
  C6       1.0000 0.78560  0.66320  0.27560  Biso   1.000  C
  C7       1.0000 0.71160  0.83840  0.22500  Biso   1.000  C
  C8       1.0000 0.66320  0.78560  0.27560  Biso   1.000  C
  C9       1.0000 0.22500  0.83840  0.71160  Biso   1.000  C
  C10      1.0000 0.27560  0.78560  0.66320  Biso   1.000  C
  C11      1.0000 0.22500  0.71160  0.83840  Biso   1.000  C
  C12      1.0000 0.27560  0.66320  0.78560  Biso   1.000  C
  C13      1.0000 0.83840  0.22500  0.22500  Biso   1.000  C
  C14      1.0000 0.78560  0.27560  0.27560  Biso   1.000  C
  C15      1.0000 0.71160  0.22500  0.22500  Biso   1.000  C
  C16      1.0000 0.66320  0.27560  0.27560  Biso   1.000  C
  C17      1.0000 0.22500  0.71160  0.22500  Biso   1.000  C
  C18      1.0000 0.27560  0.66320  0.27560  Biso   1.000  C
  C19      1.0000 0.22500  0.83840  0.22500  Biso   1.000  C
  C20      1.0000 0.27560  0.78560  0.27560  Biso   1.000  C
  C21      1.0000 0.83840  0.22500  0.71160  Biso   1.000  C
  C22      1.0000 0.78560  0.27560  0.66320  Biso   1.000  C
  C23      1.0000 0.71160  0.22500  0.83840  Biso   1.000  C
  C24      1.0000 0.66320  0.27560  0.78560  Biso   1.000  C
  C25      1.0000 0.13650  0.13650  0.86350  Biso   1.000  C
  C26      1.0000 0.20050  0.20050  0.79950  Biso   1.000  C
  C27      1.0000 0.35840  0.35840  0.64160  Biso   1.000  C
  C28      1.0000 0.30790  0.30790  0.69210  Biso   1.000  C
  C29      1.0000 0.86350  0.86350  0.13650  Biso   1.000  C
  C30      1.0000 0.79950  0.79950  0.20050  Biso   1.000  C
  C31      1.0000 0.64160  0.64160  0.35840  Biso   1.000  C
  C32      1.0000 0.69210  0.69210  0.30790  Biso   1.000  C
  C33      1.0000 0.13650  0.86350  0.86350  Biso   1.000  C
  C34      1.0000 0.20050  0.79950  0.79950  Biso   1.000  C
  C35      1.0000 0.35840  0.64160  0.64160  Biso   1.000  C
  C36      1.0000 0.30790  0.69210  0.69210  Biso   1.000  C
  C37      1.0000 0.86350  0.13650  0.13650  Biso   1.000  C
  C38      1.0000 0.79950  0.20050  0.20050  Biso   1.000  C
  C39      1.0000 0.64160  0.35840  0.35840  Biso   1.000  C
  C40      1.0000 0.69210  0.30790  0.30790  Biso   1.000  C
  C41      1.0000 0.13650  0.86350  0.13650  Biso   1.000  C
  C42      1.0000 0.20050  0.79950  0.20050  Biso   1.000  C
  C43      1.0000 0.35840  0.64160  0.35840  Biso   1.000  C
  C44      1.0000 0.30790  0.69210  0.30790  Biso   1.000  C
  C45      1.0000 0.86350  0.13650  0.86350  Biso   1.000  C
  C46      1.0000 0.79950  0.20050  0.79950  Biso   1.000  C
  C47      1.0000 0.64160  0.35840  0.64160  Biso   1.000  C
  C48      1.0000 0.69210  0.30790  0.69210  Biso   1.000  C
  O1       1.0000 0.50000  0.50000  0.50000  Biso   1.000  O
  O2       1.0000 0.00000  0.00000  0.00000  Biso   1.000  O
  O3       1.0000 0.11450  0.11450  0.94630  Biso   1.000  O
  O4       1.0000 0.38330  0.38330  0.67710  Biso   1.000  O
  O5       1.0000 0.11450  0.11450  0.82470  Biso   1.000  O
  O6       1.0000 0.38330  0.38330  0.55630  Biso   1.000  O
  O7       1.0000 0.94630  0.82470  0.11450  Biso   1.000  O
  O8       1.0000 0.67710  0.55630  0.38330  Biso   1.000  O
  O9       1.0000 0.82470  0.94630  0.11450  Biso   1.000  O
  O10      1.0000 0.55630  0.67710  0.38330  Biso   1.000  O
  O11      1.0000 0.11450  0.94630  0.82470  Biso   1.000  O
  O12      1.0000 0.38330  0.67710  0.55630  Biso   1.000  O
  O13      1.0000 0.11450  0.82470  0.94630  Biso   1.000  O
  O14      1.0000 0.38330  0.55630  0.67710  Biso   1.000  O
  O15      1.0000 0.94630  0.11450  0.11450  Biso   1.000  O
  O16      1.0000 0.67710  0.38330  0.38330  Biso   1.000  O
  O17      1.0000 0.82470  0.11450  0.11450  Biso   1.000  O
  O18      1.0000 0.55630  0.38330  0.38330  Biso   1.000  O
  O19      1.0000 0.11450  0.82470  0.11450  Biso   1.000  O
  O20      1.0000 0.38330  0.55630  0.38330  Biso   1.000  O
  O21      1.0000 0.11450  0.94630  0.11450  Biso   1.000  O
  O22      1.0000 0.38330  0.67710  0.38330  Biso   1.000  O
  O23      1.0000 0.94630  0.11450  0.82470  Biso   1.000  O
  O24      1.0000 0.67710  0.38330  0.55630  Biso   1.000  O
  O25      1.0000 0.82470  0.11450  0.94630  Biso   1.000  O
  O26      1.0000 0.55630  0.38330  0.67710  Biso   1.000  O
  Zn9      1.0000 0.24717  0.22843  0.27027  Biso   1.000  Zn
  Zn10     1.0000 0.24717  0.40388  0.27027  Biso   1.000  Zn
  Zn11     1.0000 0.07172  0.40388  0.27027  Biso   1.000  Zn
  Zn12     1.0000 0.24717  0.40388  0.09482  Biso   1.000  Zn
  Zn13     1.0000 0.67466  0.81109  0.67748  Biso   1.000  Zn
  Zn14     1.0000 0.67466  0.98654  0.67748  Biso   1.000  Zn
  Zn15     1.0000 0.85011  0.81109  0.67748  Biso   1.000  Zn
  Zn16     1.0000 0.67466  0.81109  0.85293  Biso   1.000  Zn
  H13      1.0000 0.10826  0.04112  0.43339  Biso   1.000  H
  H14      1.0000 0.41029  0.56700  0.13136  Biso   1.000  H
  H15      1.0000 0.88441  0.26497  0.43339  Biso   1.000  H
  H16      1.0000 0.41029  0.56700  0.90751  Biso   1.000  H
  H17      1.0000 0.88441  0.56700  0.13136  Biso   1.000  H
  H18      1.0000 0.41029  0.26497  0.43339  Biso   1.000  H
  H19      1.0000 0.10826  0.56700  0.90751  Biso   1.000  H
  H20      1.0000 0.41029  0.04112  0.43339  Biso   1.000  H
  H21      1.0000 0.41029  0.26497  0.90751  Biso   1.000  H
  H22      1.0000 0.10826  0.56700  0.43339  Biso   1.000  H
  H23      1.0000 0.41029  0.04112  0.13136  Biso   1.000  H
  H24      1.0000 0.88441  0.56700  0.43339  Biso   1.000  H
  H25      1.0000 0.81358  0.64797  0.51437  Biso   1.000  H
  H26      1.0000 0.51155  0.17385  0.81640  Biso   1.000  H
  H27      1.0000 0.03742  0.64797  0.51437  Biso   1.000  H
  H28      1.0000 0.51155  0.95000  0.04024  Biso   1.000  H
  H29      1.0000 0.03742  0.64797  0.81640  Biso   1.000  H
  H30      1.0000 0.51155  0.17385  0.51437  Biso   1.000  H
  H31      1.0000 0.81358  0.64797  0.04024  Biso   1.000  H
  H32      1.0000 0.51155  0.95000  0.51437  Biso   1.000  H
  H33      1.0000 0.51155  0.64797  0.04024  Biso   1.000  H
  H34      1.0000 0.81358  0.17385  0.51437  Biso   1.000  H
  H35      1.0000 0.51155  0.64797  0.81640  Biso   1.000  H
  H36      1.0000 0.03742  0.95000  0.51437  Biso   1.000  H
  C49      1.0000 0.04441  0.06794  0.45191  Biso   1.000  C
  C50      1.0000 0.42881  0.58551  0.06751  Biso   1.000  C
  C51      1.0000 0.91123  0.20112  0.45191  Biso   1.000  C
  C52      1.0000 0.42881  0.58551  0.93433  Biso   1.000  C
  C53      1.0000 0.91123  0.58551  0.06751  Biso   1.000  C
  C54      1.0000 0.42881  0.20112  0.45191  Biso   1.000  C
  C55      1.0000 0.04441  0.58551  0.93433  Biso   1.000  C
  C56      1.0000 0.42881  0.06794  0.45191  Biso   1.000  C
  C57      1.0000 0.42881  0.20112  0.93433  Biso   1.000  C
  C58      1.0000 0.04441  0.58551  0.45191  Biso   1.000  C
  C59      1.0000 0.42881  0.06794  0.06751  Biso   1.000  C
  C60      1.0000 0.91123  0.58551  0.45191  Biso   1.000  C
  C61      1.0000 0.87743  0.62946  0.49585  Biso   1.000  C
  C62      1.0000 0.49303  0.14703  0.88025  Biso   1.000  C
  C63      1.0000 0.01060  0.62946  0.49585  Biso   1.000  C
  C64      1.0000 0.49303  0.01386  0.01343  Biso   1.000  C
  C65      1.0000 0.01060  0.62946  0.88025  Biso   1.000  C
  C66      1.0000 0.49303  0.14703  0.49585  Biso   1.000  C
  C67      1.0000 0.87743  0.62946  0.01343  Biso   1.000  C
  C68      1.0000 0.49303  0.01386  0.49585  Biso   1.000  C
  C69      1.0000 0.49303  0.62946  0.01343  Biso   1.000  C
  C70      1.0000 0.87743  0.14703  0.49585  Biso   1.000  C
  C71      1.0000 0.49303  0.62946  0.88025  Biso   1.000  C
  C72      1.0000 0.01060  0.01386  0.49585  Biso   1.000  C
  C73      1.0000 0.06345  0.22016  0.36628  Biso   1.000  C
  C74      1.0000 0.00505  0.16176  0.42467  Biso   1.000  C
  C75      1.0000 0.34318  0.49988  0.08655  Biso   1.000  C
  C76      1.0000 0.40157  0.55828  0.02815  Biso   1.000  C
  C77      1.0000 0.06345  0.49988  0.08655  Biso   1.000  C
  C78      1.0000 0.00505  0.55828  0.02815  Biso   1.000  C
  C79      1.0000 0.34318  0.22016  0.36628  Biso   1.000  C
  C80      1.0000 0.40157  0.16176  0.42467  Biso   1.000  C
  C81      1.0000 0.34318  0.22016  0.08655  Biso   1.000  C
  C82      1.0000 0.40157  0.16176  0.02815  Biso   1.000  C
  C83      1.0000 0.06345  0.49988  0.36628  Biso   1.000  C
  C84      1.0000 0.00505  0.55828  0.42467  Biso   1.000  C
  C85      1.0000 0.85839  0.71509  0.58148  Biso   1.000  C
  C86      1.0000 0.91678  0.65669  0.52308  Biso   1.000  C
  C87      1.0000 0.57866  0.99481  0.86121  Biso   1.000  C
  C88      1.0000 0.52026  0.05321  0.91960  Biso   1.000  C
  C89      1.0000 0.85839  0.71509  0.86121  Biso   1.000  C
  C90      1.0000 0.91678  0.65669  0.91960  Biso   1.000  C
  C91      1.0000 0.57866  0.99481  0.58148  Biso   1.000  C
  C92      1.0000 0.52026  0.05321  0.52308  Biso   1.000  C
  C93      1.0000 0.57866  0.71509  0.86121  Biso   1.000  C
  C94      1.0000 0.52026  0.65669  0.91960  Biso   1.000  C
  C95      1.0000 0.85839  0.99481  0.58148  Biso   1.000  C
  C96      1.0000 0.91678  0.05321  0.52308  Biso   1.000  C
  O27      1.0000 0.20331  0.36002  0.22641  Biso   1.000  O
  O28      1.0000 0.71852  0.85495  0.72134  Biso   1.000  O
  O29      1.0000 0.14786  0.18056  0.34387  Biso   1.000  O
  O30      1.0000 0.32077  0.47748  0.17096  Biso   1.000  O
  O31      1.0000 0.02385  0.30456  0.34387  Biso   1.000  O
  O32      1.0000 0.32077  0.47748  0.04695  Biso   1.000  O
  O33      1.0000 0.02385  0.47748  0.17096  Biso   1.000  O
  O34      1.0000 0.32077  0.30456  0.34387  Biso   1.000  O
  O35      1.0000 0.14786  0.47748  0.04695  Biso   1.000  O
  O36      1.0000 0.32077  0.18056  0.34387  Biso   1.000  O
  O37      1.0000 0.32077  0.30456  0.04695  Biso   1.000  O
  O38      1.0000 0.14786  0.47748  0.34387  Biso   1.000  O
  O39      1.0000 0.32077  0.18056  0.17096  Biso   1.000  O
  O40      1.0000 0.02385  0.47748  0.34387  Biso   1.000  O
  O41      1.0000 0.77398  0.73749  0.60388  Biso   1.000  O
  O42      1.0000 0.60106  0.03441  0.77680  Biso   1.000  O
  O43      1.0000 0.89798  0.73749  0.60388  Biso   1.000  O
  O44      1.0000 0.60106  0.91041  0.90080  Biso   1.000  O
  O45      1.0000 0.89798  0.73749  0.77680  Biso   1.000  O
  O46      1.0000 0.60106  0.03441  0.60388  Biso   1.000  O
  O47      1.0000 0.77398  0.73749  0.90080  Biso   1.000  O
  O48      1.0000 0.60106  0.91041  0.60388  Biso   1.000  O
  O49      1.0000 0.60106  0.73749  0.90080  Biso   1.000  O
  O50      1.0000 0.77398  0.03441  0.60388  Biso   1.000  O
  O51      1.0000 0.60106  0.73749  0.77680  Biso   1.000  O
