data_image0
_cell_length_a       18.0897
_cell_length_b       18.0897
_cell_length_c       18.0897
_cell_angle_alpha    60
_cell_angle_beta     60
_cell_angle_gamma    60

_symmetry_space_group_name_H-M    "P 1"
_symmetry_int_tables_number       1

loop_
  _symmetry_equiv_pos_as_xyz
  'x, y, z'

loop_
  _atom_site_label
  _atom_site_occupancy
  _atom_site_fract_x
  _atom_site_fract_y
  _atom_site_fract_z
  _atom_site_thermal_displace_type
  _atom_site_B_iso_or_equiv
  _atom_site_type_symbol
  Zn1      1.0000 0.38110  0.20630  0.20630  Biso   1.000  Zn
  Zn2      1.0000 0.20630  0.38110  0.20630  Biso   1.000  Zn
  Zn3      1.0000 0.20630  0.20630  0.38110  Biso   1.000  Zn
  Zn4      1.0000 0.20630  0.20630  0.20630  Biso   1.000  Zn
  Zn5      1.0000 0.79370  0.61890  0.79370  Biso   1.000  Zn
  Zn6      1.0000 0.61890  0.79370  0.79370  Biso   1.000  Zn
  Zn7      1.0000 0.79370  0.79370  0.61890  Biso   1.000  Zn
  Zn8      1.0000 0.79370  0.79370  0.79370  Biso   1.000  Zn
  H1       1.0000 0.35200  0.04240  0.56320  Biso   1.000  H
  H2       1.0000 0.04240  0.35200  0.04240  Biso   1.000  H
  H3       1.0000 0.56320  0.04240  0.35200  Biso   1.000  H
  H4       1.0000 0.04240  0.56320  0.04240  Biso   1.000  H
  H5       1.0000 0.35200  0.56320  0.04240  Biso   1.000  H
  H6       1.0000 0.04240  0.04240  0.56320  Biso   1.000  H
  H7       1.0000 0.56320  0.35200  0.04240  Biso   1.000  H
  H8       1.0000 0.04240  0.04240  0.35200  Biso   1.000  H
  H9       1.0000 0.35200  0.04240  0.04240  Biso   1.000  H
  H10      1.0000 0.04240  0.56320  0.35200  Biso   1.000  H
  H11      1.0000 0.56320  0.04240  0.04240  Biso   1.000  H
  H12      1.0000 0.04240  0.35200  0.56320  Biso   1.000  H
  H13      1.0000 0.95760  0.64800  0.43680  Biso   1.000  H
  H14      1.0000 0.64800  0.95760  0.95760  Biso   1.000  H
  H15      1.0000 0.95760  0.43680  0.64800  Biso   1.000  H
  H16      1.0000 0.43680  0.95760  0.95760  Biso   1.000  H
  H17      1.0000 0.43680  0.64800  0.95760  Biso   1.000  H
  H18      1.0000 0.95760  0.95760  0.43680  Biso   1.000  H
  H19      1.0000 0.64800  0.43680  0.95760  Biso   1.000  H
  H20      1.0000 0.95760  0.95760  0.64800  Biso   1.000  H
  H21      1.0000 0.95760  0.64800  0.95760  Biso   1.000  H
  H22      1.0000 0.43680  0.95760  0.64800  Biso   1.000  H
  H23      1.0000 0.95760  0.43680  0.95760  Biso   1.000  H
  H24      1.0000 0.64800  0.95760  0.43680  Biso   1.000  H
  C1       1.0000 0.41430  0.02590  0.53390  Biso   1.000  C
  C2       1.0000 0.02590  0.41430  0.02590  Biso   1.000  C
  C3       1.0000 0.53390  0.02590  0.41430  Biso   1.000  C
  C4       1.0000 0.02590  0.53390  0.02590  Biso   1.000  C
  C5       1.0000 0.41430  0.53390  0.02590  Biso   1.000  C
  C6       1.0000 0.02590  0.02590  0.53390  Biso   1.000  C
  C7       1.0000 0.53390  0.41430  0.02590  Biso   1.000  C
  C8       1.0000 0.02590  0.02590  0.41430  Biso   1.000  C
  C9       1.0000 0.41430  0.02590  0.02590  Biso   1.000  C
  C10      1.0000 0.02590  0.53390  0.41430  Biso   1.000  C
  C11      1.0000 0.53390  0.02590  0.02590  Biso   1.000  C
  C12      1.0000 0.02590  0.41430  0.53390  Biso   1.000  C
  C13      1.0000 0.97410  0.58570  0.46610  Biso   1.000  C
  C14      1.0000 0.58570  0.97410  0.97410  Biso   1.000  C
  C15      1.0000 0.97410  0.46610  0.58570  Biso   1.000  C
  C16      1.0000 0.46610  0.97410  0.97410  Biso   1.000  C
  C17      1.0000 0.46610  0.58570  0.97410  Biso   1.000  C
  C18      1.0000 0.97410  0.97410  0.46610  Biso   1.000  C
  C19      1.0000 0.58570  0.46610  0.97410  Biso   1.000  C
  C20      1.0000 0.97410  0.97410  0.58570  Biso   1.000  C
  C21      1.0000 0.97410  0.58570  0.97410  Biso   1.000  C
  C22      1.0000 0.46610  0.97410  0.58570  Biso   1.000  C
  C23      1.0000 0.97410  0.46610  0.97410  Biso   1.000  C
  C24      1.0000 0.58570  0.97410  0.46610  Biso   1.000  C
  C25      1.0000 0.38580  0.11420  0.38580  Biso   1.000  C
  C26      1.0000 0.44340  0.05660  0.44340  Biso   1.000  C
  C27      1.0000 0.11420  0.38580  0.11420  Biso   1.000  C
  C28      1.0000 0.05660  0.44340  0.05660  Biso   1.000  C
  C29      1.0000 0.38580  0.38580  0.11420  Biso   1.000  C
  C30      1.0000 0.44340  0.44340  0.05660  Biso   1.000  C
  C31      1.0000 0.11420  0.11420  0.38580  Biso   1.000  C
  C32      1.0000 0.05660  0.05660  0.44340  Biso   1.000  C
  C33      1.0000 0.38580  0.11420  0.11420  Biso   1.000  C
  C34      1.0000 0.44340  0.05660  0.05660  Biso   1.000  C
  C35      1.0000 0.11420  0.38580  0.38580  Biso   1.000  C
  C36      1.0000 0.05660  0.44340  0.44340  Biso   1.000  C
  C37      1.0000 0.88580  0.61420  0.61420  Biso   1.000  C
  C38      1.0000 0.94340  0.55660  0.55660  Biso   1.000  C
  C39      1.0000 0.61420  0.88580  0.88580  Biso   1.000  C
  C40      1.0000 0.55660  0.94340  0.94340  Biso   1.000  C
  C41      1.0000 0.61420  0.61420  0.88580  Biso   1.000  C
  C42      1.0000 0.55660  0.55660  0.94340  Biso   1.000  C
  C43      1.0000 0.88580  0.88580  0.61420  Biso   1.000  C
  C44      1.0000 0.94340  0.94340  0.55660  Biso   1.000  C
  C45      1.0000 0.88580  0.61420  0.88580  Biso   1.000  C
  C46      1.0000 0.94340  0.55660  0.94340  Biso   1.000  C
  C47      1.0000 0.61420  0.88580  0.61420  Biso   1.000  C
  C48      1.0000 0.55660  0.94340  0.55660  Biso   1.000  C
  O1       1.0000 0.25000  0.25000  0.25000  Biso   1.000  O
  O2       1.0000 0.75000  0.75000  0.75000  Biso   1.000  O
  O3       1.0000 0.42610  0.13570  0.30250  Biso   1.000  O
  O4       1.0000 0.13570  0.42610  0.13570  Biso   1.000  O
  O5       1.0000 0.30250  0.13570  0.42610  Biso   1.000  O
  O6       1.0000 0.13570  0.30250  0.13570  Biso   1.000  O
  O7       1.0000 0.42610  0.30250  0.13570  Biso   1.000  O
  O8       1.0000 0.13570  0.13570  0.30250  Biso   1.000  O
  O9       1.0000 0.30250  0.42610  0.13570  Biso   1.000  O
  O10      1.0000 0.13570  0.13570  0.42610  Biso   1.000  O
  O11      1.0000 0.42610  0.13570  0.13570  Biso   1.000  O
  O12      1.0000 0.13570  0.30250  0.42610  Biso   1.000  O
  O13      1.0000 0.30250  0.13570  0.13570  Biso   1.000  O
  O14      1.0000 0.13570  0.42610  0.30250  Biso   1.000  O
  O15      1.0000 0.86430  0.57390  0.69750  Biso   1.000  O
  O16      1.0000 0.57390  0.86430  0.86430  Biso   1.000  O
  O17      1.0000 0.86430  0.69750  0.57390  Biso   1.000  O
  O18      1.0000 0.69750  0.86430  0.86430  Biso   1.000  O
  O19      1.0000 0.69750  0.57390  0.86430  Biso   1.000  O
  O20      1.0000 0.86430  0.86430  0.69750  Biso   1.000  O
  O21      1.0000 0.57390  0.69750  0.86430  Biso   1.000  O
  O22      1.0000 0.86430  0.86430  0.57390  Biso   1.000  O
  O23      1.0000 0.86430  0.57390  0.86430  Biso   1.000  O
  O24      1.0000 0.69750  0.86430  0.57390  Biso   1.000  O
  O25      1.0000 0.86430  0.69750  0.86430  Biso   1.000  O
  O26      1.0000 0.57390  0.86430  0.69750  Biso   1.000  O
  Zn9      1.0000 0.00000  0.00000  0.00000  Biso   1.000  Zn
  Zn10     1.0000 0.58837  0.41215  0.58732  Biso   1.000  Zn
  Zn11     1.0000 0.58837  0.58746  0.58732  Biso   1.000  Zn
  Zn12     1.0000 0.00000  0.17531  0.00000  Biso   1.000  Zn
  Zn13     1.0000 0.99996  0.99992  0.17551  Biso   1.000  Zn
  Zn14     1.0000 0.17508  0.00018  0.99987  Biso   1.000  Zn
  Zn15     1.0000 0.58841  0.58754  0.41181  Biso   1.000  Zn
  Zn16     1.0000 0.41329  0.58728  0.58745  Biso   1.000  Zn
  H25      1.0000 0.83459  0.84179  0.35977  Biso   1.000  H
  H26      1.0000 0.83363  0.84334  0.13769  Biso   1.000  H
  H27      1.0000 0.83071  0.13774  0.84419  Biso   1.000  H
  H28      1.0000 0.75378  0.44829  0.22755  Biso   1.000  H
  H29      1.0000 0.75474  0.22682  0.44963  Biso   1.000  H
  H30      1.0000 0.75766  0.22480  0.74313  Biso   1.000  H
  H31      1.0000 0.75378  0.74568  0.22755  Biso   1.000  H
  H32      1.0000 0.75474  0.74412  0.44963  Biso   1.000  H
  H33      1.0000 0.75766  0.44972  0.74313  Biso   1.000  H
  H34      1.0000 0.83459  0.13917  0.35977  Biso   1.000  H
  H35      1.0000 0.83363  0.36064  0.13769  Biso   1.000  H
  H36      1.0000 0.83071  0.36266  0.84419  Biso   1.000  H
  C49      1.0000 0.91195  0.91098  0.18002  Biso   1.000  C
  C50      1.0000 0.84732  0.84584  0.23986  Biso   1.000  C
  C51      1.0000 0.81877  0.82017  0.33315  Biso   1.000  C
  C52      1.0000 0.81882  0.82163  0.20154  Biso   1.000  C
  C53      1.0000 0.17601  0.91160  0.91174  Biso   1.000  C
  C54      1.0000 0.81720  0.20149  0.82028  Biso   1.000  C
  C55      1.0000 0.67641  0.41512  0.40730  Biso   1.000  C
  C56      1.0000 0.74105  0.34518  0.34746  Biso   1.000  C
  C57      1.0000 0.76959  0.38425  0.25417  Biso   1.000  C
  C58      1.0000 0.76955  0.25414  0.38578  Biso   1.000  C
  C59      1.0000 0.41236  0.41150  0.67558  Biso   1.000  C
  C60      1.0000 0.77117  0.25112  0.76704  Biso   1.000  C
  C61      1.0000 0.67641  0.67648  0.40730  Biso   1.000  C
  C62      1.0000 0.74105  0.74162  0.34746  Biso   1.000  C
  C63      1.0000 0.76959  0.76729  0.25417  Biso   1.000  C
  C64      1.0000 0.76955  0.76584  0.38578  Biso   1.000  C
  C65      1.0000 0.41236  0.67586  0.67558  Biso   1.000  C
  C66      1.0000 0.77117  0.38598  0.76704  Biso   1.000  C
  C67      1.0000 0.91196  0.17235  0.18002  Biso   1.000  C
  C68      1.0000 0.84732  0.24229  0.23986  Biso   1.000  C
  C69      1.0000 0.81878  0.20321  0.33315  Biso   1.000  C
  C70      1.0000 0.81882  0.33332  0.20154  Biso   1.000  C
  C71      1.0000 0.17601  0.17596  0.91174  Biso   1.000  C
  C72      1.0000 0.81720  0.33634  0.82028  Biso   1.000  C
  C73      1.0000 0.17402  0.91068  0.17992  Biso   1.000  C
  C74      1.0000 0.90854  0.17707  0.91264  Biso   1.000  C
  C75      1.0000 0.84710  0.24251  0.84319  Biso   1.000  C
  C76      1.0000 0.41435  0.67678  0.40740  Biso   1.000  C
  C77      1.0000 0.67983  0.41040  0.67468  Biso   1.000  C
  C78      1.0000 0.74127  0.34495  0.74413  Biso   1.000  C
  O27      1.0000 0.92957  0.92739  0.22425  Biso   1.000  O
  O28      1.0000 0.92756  0.92660  0.09657  Biso   1.000  O
  O29      1.0000 0.22564  0.92721  0.92815  Biso   1.000  O
  O30      1.0000 0.09425  0.92701  0.92805  Biso   1.000  O
  O31      1.0000 0.92835  0.09481  0.92645  Biso   1.000  O
  O32      1.0000 0.65880  0.49337  0.36307  Biso   1.000  O
  O33      1.0000 0.66081  0.36288  0.49075  Biso   1.000  O
  O34      1.0000 0.36273  0.49315  0.65917  Biso   1.000  O
  O35      1.0000 0.49411  0.36147  0.65927  Biso   1.000  O
  O36      1.0000 0.66002  0.36177  0.66087  Biso   1.000  O
  O37      1.0000 0.65880  0.66007  0.36307  Biso   1.000  O
  O38      1.0000 0.66081  0.66087  0.49075  Biso   1.000  O
  O39      1.0000 0.36273  0.66026  0.65917  Biso   1.000  O
  O40      1.0000 0.49411  0.66046  0.65927  Biso   1.000  O
  O41      1.0000 0.66002  0.49265  0.66087  Biso   1.000  O
  O42      1.0000 0.92957  0.09410  0.22425  Biso   1.000  O
  O43      1.0000 0.92756  0.22459  0.09657  Biso   1.000  O
  O44      1.0000 0.22564  0.09431  0.92815  Biso   1.000  O
  O45      1.0000 0.09426  0.22600  0.92805  Biso   1.000  O
  O46      1.0000 0.92835  0.22570  0.92645  Biso   1.000  O
  O47      1.0000 0.04233  0.04518  0.04263  Biso   1.000  O
  O48      1.0000 0.09457  0.92749  0.22575  Biso   1.000  O
  O49      1.0000 0.22535  0.92760  0.09476  Biso   1.000  O
  O50      1.0000 0.54604  0.54229  0.54469  Biso   1.000  O
  O51      1.0000 0.49380  0.65997  0.36157  Biso   1.000  O
