data_image0
_cell_length_a       18.0897
_cell_length_b       18.0897
_cell_length_c       18.0897
_cell_angle_alpha    60
_cell_angle_beta     60
_cell_angle_gamma    60

_symmetry_space_group_name_H-M    "P 1"
_symmetry_int_tables_number       1

loop_
  _symmetry_equiv_pos_as_xyz
  'x, y, z'

loop_
  _atom_site_label
  _atom_site_occupancy
  _atom_site_fract_x
  _atom_site_fract_y
  _atom_site_fract_z
  _atom_site_thermal_displace_type
  _atom_site_B_iso_or_equiv
  _atom_site_type_symbol
  Zn1      1.0000 0.38110  0.20630  0.20630  Biso   1.000  Zn
  Zn2      1.0000 0.20630  0.38110  0.20630  Biso   1.000  Zn
  Zn3      1.0000 0.20630  0.20630  0.38110  Biso   1.000  Zn
  Zn4      1.0000 0.20630  0.20630  0.20630  Biso   1.000  Zn
  Zn5      1.0000 0.79370  0.61890  0.79370  Biso   1.000  Zn
  Zn6      1.0000 0.61890  0.79370  0.79370  Biso   1.000  Zn
  Zn7      1.0000 0.79370  0.79370  0.61890  Biso   1.000  Zn
  Zn8      1.0000 0.79370  0.79370  0.79370  Biso   1.000  Zn
  H1       1.0000 0.35200  0.04240  0.56320  Biso   1.000  H
  H2       1.0000 0.04240  0.35200  0.04240  Biso   1.000  H
  H3       1.0000 0.56320  0.04240  0.35200  Biso   1.000  H
  H4       1.0000 0.04240  0.56320  0.04240  Biso   1.000  H
  H5       1.0000 0.35200  0.56320  0.04240  Biso   1.000  H
  H6       1.0000 0.04240  0.04240  0.56320  Biso   1.000  H
  H7       1.0000 0.56320  0.35200  0.04240  Biso   1.000  H
  H8       1.0000 0.04240  0.04240  0.35200  Biso   1.000  H
  H9       1.0000 0.35200  0.04240  0.04240  Biso   1.000  H
  H10      1.0000 0.04240  0.56320  0.35200  Biso   1.000  H
  H11      1.0000 0.56320  0.04240  0.04240  Biso   1.000  H
  H12      1.0000 0.04240  0.35200  0.56320  Biso   1.000  H
  H13      1.0000 0.95760  0.64800  0.43680  Biso   1.000  H
  H14      1.0000 0.64800  0.95760  0.95760  Biso   1.000  H
  H15      1.0000 0.95760  0.43680  0.64800  Biso   1.000  H
  H16      1.0000 0.43680  0.95760  0.95760  Biso   1.000  H
  H17      1.0000 0.43680  0.64800  0.95760  Biso   1.000  H
  H18      1.0000 0.95760  0.95760  0.43680  Biso   1.000  H
  H19      1.0000 0.64800  0.43680  0.95760  Biso   1.000  H
  H20      1.0000 0.95760  0.95760  0.64800  Biso   1.000  H
  H21      1.0000 0.95760  0.64800  0.95760  Biso   1.000  H
  H22      1.0000 0.43680  0.95760  0.64800  Biso   1.000  H
  H23      1.0000 0.95760  0.43680  0.95760  Biso   1.000  H
  H24      1.0000 0.64800  0.95760  0.43680  Biso   1.000  H
  C1       1.0000 0.41430  0.02590  0.53390  Biso   1.000  C
  C2       1.0000 0.02590  0.41430  0.02590  Biso   1.000  C
  C3       1.0000 0.53390  0.02590  0.41430  Biso   1.000  C
  C4       1.0000 0.02590  0.53390  0.02590  Biso   1.000  C
  C5       1.0000 0.41430  0.53390  0.02590  Biso   1.000  C
  C6       1.0000 0.02590  0.02590  0.53390  Biso   1.000  C
  C7       1.0000 0.53390  0.41430  0.02590  Biso   1.000  C
  C8       1.0000 0.02590  0.02590  0.41430  Biso   1.000  C
  C9       1.0000 0.41430  0.02590  0.02590  Biso   1.000  C
  C10      1.0000 0.02590  0.53390  0.41430  Biso   1.000  C
  C11      1.0000 0.53390  0.02590  0.02590  Biso   1.000  C
  C12      1.0000 0.02590  0.41430  0.53390  Biso   1.000  C
  C13      1.0000 0.97410  0.58570  0.46610  Biso   1.000  C
  C14      1.0000 0.58570  0.97410  0.97410  Biso   1.000  C
  C15      1.0000 0.97410  0.46610  0.58570  Biso   1.000  C
  C16      1.0000 0.46610  0.97410  0.97410  Biso   1.000  C
  C17      1.0000 0.46610  0.58570  0.97410  Biso   1.000  C
  C18      1.0000 0.97410  0.97410  0.46610  Biso   1.000  C
  C19      1.0000 0.58570  0.46610  0.97410  Biso   1.000  C
  C20      1.0000 0.97410  0.97410  0.58570  Biso   1.000  C
  C21      1.0000 0.97410  0.58570  0.97410  Biso   1.000  C
  C22      1.0000 0.46610  0.97410  0.58570  Biso   1.000  C
  C23      1.0000 0.97410  0.46610  0.97410  Biso   1.000  C
  C24      1.0000 0.58570  0.97410  0.46610  Biso   1.000  C
  C25      1.0000 0.38580  0.11420  0.38580  Biso   1.000  C
  C26      1.0000 0.44340  0.05660  0.44340  Biso   1.000  C
  C27      1.0000 0.11420  0.38580  0.11420  Biso   1.000  C
  C28      1.0000 0.05660  0.44340  0.05660  Biso   1.000  C
  C29      1.0000 0.38580  0.38580  0.11420  Biso   1.000  C
  C30      1.0000 0.44340  0.44340  0.05660  Biso   1.000  C
  C31      1.0000 0.11420  0.11420  0.38580  Biso   1.000  C
  C32      1.0000 0.05660  0.05660  0.44340  Biso   1.000  C
  C33      1.0000 0.38580  0.11420  0.11420  Biso   1.000  C
  C34      1.0000 0.44340  0.05660  0.05660  Biso   1.000  C
  C35      1.0000 0.11420  0.38580  0.38580  Biso   1.000  C
  C36      1.0000 0.05660  0.44340  0.44340  Biso   1.000  C
  C37      1.0000 0.88580  0.61420  0.61420  Biso   1.000  C
  C38      1.0000 0.94340  0.55660  0.55660  Biso   1.000  C
  C39      1.0000 0.61420  0.88580  0.88580  Biso   1.000  C
  C40      1.0000 0.55660  0.94340  0.94340  Biso   1.000  C
  C41      1.0000 0.61420  0.61420  0.88580  Biso   1.000  C
  C42      1.0000 0.55660  0.55660  0.94340  Biso   1.000  C
  C43      1.0000 0.88580  0.88580  0.61420  Biso   1.000  C
  C44      1.0000 0.94340  0.94340  0.55660  Biso   1.000  C
  C45      1.0000 0.88580  0.61420  0.88580  Biso   1.000  C
  C46      1.0000 0.94340  0.55660  0.94340  Biso   1.000  C
  C47      1.0000 0.61420  0.88580  0.61420  Biso   1.000  C
  C48      1.0000 0.55660  0.94340  0.55660  Biso   1.000  C
  O1       1.0000 0.25000  0.25000  0.25000  Biso   1.000  O
  O2       1.0000 0.75000  0.75000  0.75000  Biso   1.000  O
  O3       1.0000 0.42610  0.13570  0.30250  Biso   1.000  O
  O4       1.0000 0.13570  0.42610  0.13570  Biso   1.000  O
  O5       1.0000 0.30250  0.13570  0.42610  Biso   1.000  O
  O6       1.0000 0.13570  0.30250  0.13570  Biso   1.000  O
  O7       1.0000 0.42610  0.30250  0.13570  Biso   1.000  O
  O8       1.0000 0.13570  0.13570  0.30250  Biso   1.000  O
  O9       1.0000 0.30250  0.42610  0.13570  Biso   1.000  O
  O10      1.0000 0.13570  0.13570  0.42610  Biso   1.000  O
  O11      1.0000 0.42610  0.13570  0.13570  Biso   1.000  O
  O12      1.0000 0.13570  0.30250  0.42610  Biso   1.000  O
  O13      1.0000 0.30250  0.13570  0.13570  Biso   1.000  O
  O14      1.0000 0.13570  0.42610  0.30250  Biso   1.000  O
  O15      1.0000 0.86430  0.57390  0.69750  Biso   1.000  O
  O16      1.0000 0.57390  0.86430  0.86430  Biso   1.000  O
  O17      1.0000 0.86430  0.69750  0.57390  Biso   1.000  O
  O18      1.0000 0.69750  0.86430  0.86430  Biso   1.000  O
  O19      1.0000 0.69750  0.57390  0.86430  Biso   1.000  O
  O20      1.0000 0.86430  0.86430  0.69750  Biso   1.000  O
  O21      1.0000 0.57390  0.69750  0.86430  Biso   1.000  O
  O22      1.0000 0.86430  0.86430  0.57390  Biso   1.000  O
  O23      1.0000 0.86430  0.57390  0.86430  Biso   1.000  O
  O24      1.0000 0.69750  0.86430  0.57390  Biso   1.000  O
  O25      1.0000 0.86430  0.69750  0.86430  Biso   1.000  O
  O26      1.0000 0.57390  0.86430  0.69750  Biso   1.000  O
  Zn9      1.0000 0.99504  0.00000  0.00000  Biso   1.000  Zn
  Zn10     1.0000 0.99504  1.00000  0.17568  Biso   1.000  Zn
  Zn11     1.0000 0.81936  1.00000  0.17568  Biso   1.000  Zn
  Zn12     1.0000 0.99504  0.82432  0.17568  Biso   1.000  Zn
  Zn13     1.0000 0.41126  0.41620  0.76755  Biso   1.000  Zn
  Zn14     1.0000 0.41126  0.41620  0.59188  Biso   1.000  Zn
  Zn15     1.0000 0.41126  0.59188  0.59188  Biso   1.000  Zn
  Zn16     1.0000 0.58694  0.41620  0.59188  Biso   1.000  Zn
  H25      1.0000 0.15879  0.16374  0.82370  Biso   1.000  H
  H26      1.0000 0.15879  0.16374  0.03256  Biso   1.000  H
  H27      1.0000 0.64308  0.85688  0.33942  Biso   1.000  H
  H28      1.0000 0.85193  0.64803  0.33942  Biso   1.000  H
  H29      1.0000 0.15879  0.64803  0.03256  Biso   1.000  H
  H30      1.0000 0.15879  0.85688  0.82370  Biso   1.000  H
  H31      1.0000 0.64308  0.16374  0.33942  Biso   1.000  H
  H32      1.0000 0.85193  0.16374  0.33942  Biso   1.000  H
  H33      1.0000 0.15879  0.85688  0.33942  Biso   1.000  H
  H34      1.0000 0.15879  0.64803  0.33942  Biso   1.000  H
  H35      1.0000 0.64308  0.16374  0.03256  Biso   1.000  H
  H36      1.0000 0.85193  0.16374  0.82370  Biso   1.000  H
  H37      1.0000 0.24751  0.25245  0.94385  Biso   1.000  H
  H38      1.0000 0.24751  0.25245  0.73499  Biso   1.000  H
  H39      1.0000 0.55437  0.76817  0.42813  Biso   1.000  H
  H40      1.0000 0.76322  0.55931  0.42813  Biso   1.000  H
  H41      1.0000 0.76322  0.25245  0.73499  Biso   1.000  H
  H42      1.0000 0.55437  0.25245  0.94385  Biso   1.000  H
  H43      1.0000 0.24751  0.76817  0.42813  Biso   1.000  H
  H44      1.0000 0.24751  0.55931  0.42813  Biso   1.000  H
  H45      1.0000 0.55437  0.25245  0.42813  Biso   1.000  H
  H46      1.0000 0.76322  0.25245  0.42813  Biso   1.000  H
  H47      1.0000 0.24751  0.76817  0.73499  Biso   1.000  H
  H48      1.0000 0.24751  0.55931  0.94385  Biso   1.000  H
  C49      1.0000 0.17654  0.18149  0.85072  Biso   1.000  C
  C50      1.0000 0.17654  0.18148  0.97006  Biso   1.000  C
  C51      1.0000 0.67009  0.79438  0.35716  Biso   1.000  C
  C52      1.0000 0.78943  0.67504  0.35716  Biso   1.000  C
  C53      1.0000 0.17654  0.67504  0.97006  Biso   1.000  C
  C54      1.0000 0.17654  0.79438  0.85072  Biso   1.000  C
  C55      1.0000 0.67009  0.18148  0.35716  Biso   1.000  C
  C56      1.0000 0.78943  0.18148  0.35716  Biso   1.000  C
  C57      1.0000 0.17654  0.79438  0.35716  Biso   1.000  C
  C58      1.0000 0.17654  0.67504  0.35716  Biso   1.000  C
  C59      1.0000 0.67009  0.18148  0.97006  Biso   1.000  C
  C60      1.0000 0.78943  0.18149  0.85072  Biso   1.000  C
  C61      1.0000 0.22976  0.23471  0.91683  Biso   1.000  C
  C62      1.0000 0.22976  0.23471  0.79749  Biso   1.000  C
  C63      1.0000 0.61687  0.74115  0.41039  Biso   1.000  C
  C64      1.0000 0.73621  0.62182  0.41039  Biso   1.000  C
  C65      1.0000 0.73621  0.23471  0.79749  Biso   1.000  C
  C66      1.0000 0.61687  0.23471  0.91683  Biso   1.000  C
  C67      1.0000 0.22976  0.74115  0.41039  Biso   1.000  C
  C68      1.0000 0.22976  0.62182  0.41039  Biso   1.000  C
  C69      1.0000 0.61687  0.23471  0.41039  Biso   1.000  C
  C70      1.0000 0.73621  0.23471  0.41039  Biso   1.000  C
  C71      1.0000 0.22976  0.74115  0.79749  Biso   1.000  C
  C72      1.0000 0.22976  0.62182  0.91683  Biso   1.000  C
  C73      1.0000 0.09085  0.09580  0.99204  Biso   1.000  C
  C74      1.0000 0.14902  0.15396  0.93387  Biso   1.000  C
  C75      1.0000 0.81141  0.81636  0.27148  Biso   1.000  C
  C76      1.0000 0.75324  0.75819  0.32964  Biso   1.000  C
  C77      1.0000 0.09085  0.81636  0.99204  Biso   1.000  C
  C78      1.0000 0.14902  0.75819  0.93387  Biso   1.000  C
  C79      1.0000 0.81141  0.09580  0.27148  Biso   1.000  C
  C80      1.0000 0.75324  0.15396  0.32964  Biso   1.000  C
  C81      1.0000 0.09085  0.81636  0.27148  Biso   1.000  C
  C82      1.0000 0.14902  0.75819  0.32964  Biso   1.000  C
  C83      1.0000 0.81141  0.09580  0.99204  Biso   1.000  C
  C84      1.0000 0.75324  0.15396  0.93387  Biso   1.000  C
  C85      1.0000 0.31545  0.32040  0.77552  Biso   1.000  C
  C86      1.0000 0.25728  0.26223  0.83368  Biso   1.000  C
  C87      1.0000 0.59489  0.59984  0.49608  Biso   1.000  C
  C88      1.0000 0.65306  0.65801  0.43791  Biso   1.000  C
  C89      1.0000 0.59489  0.32040  0.77552  Biso   1.000  C
  C90      1.0000 0.65306  0.26223  0.83368  Biso   1.000  C
  C91      1.0000 0.31545  0.59984  0.49608  Biso   1.000  C
  C92      1.0000 0.25728  0.65801  0.43791  Biso   1.000  C
  C93      1.0000 0.59489  0.32040  0.49608  Biso   1.000  C
  C94      1.0000 0.65306  0.26223  0.43791  Biso   1.000  C
  C95      1.0000 0.31545  0.59984  0.77552  Biso   1.000  C
  C96      1.0000 0.25728  0.65801  0.83368  Biso   1.000  C
  O27      1.0000 0.95113  0.95608  0.13176  Biso   1.000  O
  O28      1.0000 0.45517  0.46012  0.63580  Biso   1.000  O
  O29      1.0000 0.06812  0.07307  0.95356  Biso   1.000  O
  O30      1.0000 0.06812  0.07307  0.07598  Biso   1.000  O
  O31      1.0000 0.77293  0.90030  0.24874  Biso   1.000  O
  O32      1.0000 0.89535  0.77788  0.24874  Biso   1.000  O
  O33      1.0000 0.06812  0.77788  0.07598  Biso   1.000  O
  O34      1.0000 0.06812  0.90030  0.95356  Biso   1.000  O
  O35      1.0000 0.77293  0.07307  0.24874  Biso   1.000  O
  O36      1.0000 0.89535  0.07307  0.24874  Biso   1.000  O
  O37      1.0000 0.06812  0.90030  0.24874  Biso   1.000  O
  O38      1.0000 0.06812  0.77788  0.24874  Biso   1.000  O
  O39      1.0000 0.77293  0.07307  0.07598  Biso   1.000  O
  O40      1.0000 0.89535  0.07307  0.95356  Biso   1.000  O
  O41      1.0000 0.33818  0.34313  0.81400  Biso   1.000  O
  O42      1.0000 0.33818  0.34313  0.69157  Biso   1.000  O
  O43      1.0000 0.51095  0.63832  0.51881  Biso   1.000  O
  O44      1.0000 0.63337  0.51590  0.51881  Biso   1.000  O
  O45      1.0000 0.63337  0.34313  0.69157  Biso   1.000  O
  O46      1.0000 0.51095  0.34313  0.81400  Biso   1.000  O
  O47      1.0000 0.33818  0.63832  0.51881  Biso   1.000  O
  O48      1.0000 0.33818  0.51590  0.51881  Biso   1.000  O
  O49      1.0000 0.51095  0.34313  0.51881  Biso   1.000  O
  O50      1.0000 0.63337  0.34313  0.51881  Biso   1.000  O
  O51      1.0000 0.33818  0.63832  0.69157  Biso   1.000  O
