data_image0
_cell_length_a       18.0897
_cell_length_b       18.0897
_cell_length_c       18.0897
_cell_angle_alpha    60
_cell_angle_beta     60
_cell_angle_gamma    60

_symmetry_space_group_name_H-M    "P 1"
_symmetry_int_tables_number       1

loop_
  _symmetry_equiv_pos_as_xyz
  'x, y, z'

loop_
  _atom_site_label
  _atom_site_occupancy
  _atom_site_fract_x
  _atom_site_fract_y
  _atom_site_fract_z
  _atom_site_thermal_displace_type
  _atom_site_B_iso_or_equiv
  _atom_site_type_symbol
  Zn1      1.0000 0.38110  0.20630  0.20630  Biso   1.000  Zn
  Zn2      1.0000 0.20630  0.38110  0.20630  Biso   1.000  Zn
  Zn3      1.0000 0.20630  0.20630  0.38110  Biso   1.000  Zn
  Zn4      1.0000 0.20630  0.20630  0.20630  Biso   1.000  Zn
  Zn5      1.0000 0.79370  0.61890  0.79370  Biso   1.000  Zn
  Zn6      1.0000 0.61890  0.79370  0.79370  Biso   1.000  Zn
  Zn7      1.0000 0.79370  0.79370  0.61890  Biso   1.000  Zn
  Zn8      1.0000 0.79370  0.79370  0.79370  Biso   1.000  Zn
  H1       1.0000 0.35200  0.04240  0.56320  Biso   1.000  H
  H2       1.0000 0.04240  0.35200  0.04240  Biso   1.000  H
  H3       1.0000 0.56320  0.04240  0.35200  Biso   1.000  H
  H4       1.0000 0.04240  0.56320  0.04240  Biso   1.000  H
  H5       1.0000 0.35200  0.56320  0.04240  Biso   1.000  H
  H6       1.0000 0.04240  0.04240  0.56320  Biso   1.000  H
  H7       1.0000 0.56320  0.35200  0.04240  Biso   1.000  H
  H8       1.0000 0.04240  0.04240  0.35200  Biso   1.000  H
  H9       1.0000 0.35200  0.04240  0.04240  Biso   1.000  H
  H10      1.0000 0.04240  0.56320  0.35200  Biso   1.000  H
  H11      1.0000 0.56320  0.04240  0.04240  Biso   1.000  H
  H12      1.0000 0.04240  0.35200  0.56320  Biso   1.000  H
  H13      1.0000 0.95760  0.64800  0.43680  Biso   1.000  H
  H14      1.0000 0.64800  0.95760  0.95760  Biso   1.000  H
  H15      1.0000 0.95760  0.43680  0.64800  Biso   1.000  H
  H16      1.0000 0.43680  0.95760  0.95760  Biso   1.000  H
  H17      1.0000 0.43680  0.64800  0.95760  Biso   1.000  H
  H18      1.0000 0.95760  0.95760  0.43680  Biso   1.000  H
  H19      1.0000 0.64800  0.43680  0.95760  Biso   1.000  H
  H20      1.0000 0.95760  0.95760  0.64800  Biso   1.000  H
  H21      1.0000 0.95760  0.64800  0.95760  Biso   1.000  H
  H22      1.0000 0.43680  0.95760  0.64800  Biso   1.000  H
  H23      1.0000 0.95760  0.43680  0.95760  Biso   1.000  H
  H24      1.0000 0.64800  0.95760  0.43680  Biso   1.000  H
  C1       1.0000 0.41430  0.02590  0.53390  Biso   1.000  C
  C2       1.0000 0.02590  0.41430  0.02590  Biso   1.000  C
  C3       1.0000 0.53390  0.02590  0.41430  Biso   1.000  C
  C4       1.0000 0.02590  0.53390  0.02590  Biso   1.000  C
  C5       1.0000 0.41430  0.53390  0.02590  Biso   1.000  C
  C6       1.0000 0.02590  0.02590  0.53390  Biso   1.000  C
  C7       1.0000 0.53390  0.41430  0.02590  Biso   1.000  C
  C8       1.0000 0.02590  0.02590  0.41430  Biso   1.000  C
  C9       1.0000 0.41430  0.02590  0.02590  Biso   1.000  C
  C10      1.0000 0.02590  0.53390  0.41430  Biso   1.000  C
  C11      1.0000 0.53390  0.02590  0.02590  Biso   1.000  C
  C12      1.0000 0.02590  0.41430  0.53390  Biso   1.000  C
  C13      1.0000 0.97410  0.58570  0.46610  Biso   1.000  C
  C14      1.0000 0.58570  0.97410  0.97410  Biso   1.000  C
  C15      1.0000 0.97410  0.46610  0.58570  Biso   1.000  C
  C16      1.0000 0.46610  0.97410  0.97410  Biso   1.000  C
  C17      1.0000 0.46610  0.58570  0.97410  Biso   1.000  C
  C18      1.0000 0.97410  0.97410  0.46610  Biso   1.000  C
  C19      1.0000 0.58570  0.46610  0.97410  Biso   1.000  C
  C20      1.0000 0.97410  0.97410  0.58570  Biso   1.000  C
  C21      1.0000 0.97410  0.58570  0.97410  Biso   1.000  C
  C22      1.0000 0.46610  0.97410  0.58570  Biso   1.000  C
  C23      1.0000 0.97410  0.46610  0.97410  Biso   1.000  C
  C24      1.0000 0.58570  0.97410  0.46610  Biso   1.000  C
  C25      1.0000 0.38580  0.11420  0.38580  Biso   1.000  C
  C26      1.0000 0.44340  0.05660  0.44340  Biso   1.000  C
  C27      1.0000 0.11420  0.38580  0.11420  Biso   1.000  C
  C28      1.0000 0.05660  0.44340  0.05660  Biso   1.000  C
  C29      1.0000 0.38580  0.38580  0.11420  Biso   1.000  C
  C30      1.0000 0.44340  0.44340  0.05660  Biso   1.000  C
  C31      1.0000 0.11420  0.11420  0.38580  Biso   1.000  C
  C32      1.0000 0.05660  0.05660  0.44340  Biso   1.000  C
  C33      1.0000 0.38580  0.11420  0.11420  Biso   1.000  C
  C34      1.0000 0.44340  0.05660  0.05660  Biso   1.000  C
  C35      1.0000 0.11420  0.38580  0.38580  Biso   1.000  C
  C36      1.0000 0.05660  0.44340  0.44340  Biso   1.000  C
  C37      1.0000 0.88580  0.61420  0.61420  Biso   1.000  C
  C38      1.0000 0.94340  0.55660  0.55660  Biso   1.000  C
  C39      1.0000 0.61420  0.88580  0.88580  Biso   1.000  C
  C40      1.0000 0.55660  0.94340  0.94340  Biso   1.000  C
  C41      1.0000 0.61420  0.61420  0.88580  Biso   1.000  C
  C42      1.0000 0.55660  0.55660  0.94340  Biso   1.000  C
  C43      1.0000 0.88580  0.88580  0.61420  Biso   1.000  C
  C44      1.0000 0.94340  0.94340  0.55660  Biso   1.000  C
  C45      1.0000 0.88580  0.61420  0.88580  Biso   1.000  C
  C46      1.0000 0.94340  0.55660  0.94340  Biso   1.000  C
  C47      1.0000 0.61420  0.88580  0.61420  Biso   1.000  C
  C48      1.0000 0.55660  0.94340  0.55660  Biso   1.000  C
  O1       1.0000 0.25000  0.25000  0.25000  Biso   1.000  O
  O2       1.0000 0.75000  0.75000  0.75000  Biso   1.000  O
  O3       1.0000 0.42610  0.13570  0.30250  Biso   1.000  O
  O4       1.0000 0.13570  0.42610  0.13570  Biso   1.000  O
  O5       1.0000 0.30250  0.13570  0.42610  Biso   1.000  O
  O6       1.0000 0.13570  0.30250  0.13570  Biso   1.000  O
  O7       1.0000 0.42610  0.30250  0.13570  Biso   1.000  O
  O8       1.0000 0.13570  0.13570  0.30250  Biso   1.000  O
  O9       1.0000 0.30250  0.42610  0.13570  Biso   1.000  O
  O10      1.0000 0.13570  0.13570  0.42610  Biso   1.000  O
  O11      1.0000 0.42610  0.13570  0.13570  Biso   1.000  O
  O12      1.0000 0.13570  0.30250  0.42610  Biso   1.000  O
  O13      1.0000 0.30250  0.13570  0.13570  Biso   1.000  O
  O14      1.0000 0.13570  0.42610  0.30250  Biso   1.000  O
  O15      1.0000 0.86430  0.57390  0.69750  Biso   1.000  O
  O16      1.0000 0.57390  0.86430  0.86430  Biso   1.000  O
  O17      1.0000 0.86430  0.69750  0.57390  Biso   1.000  O
  O18      1.0000 0.69750  0.86430  0.86430  Biso   1.000  O
  O19      1.0000 0.69750  0.57390  0.86430  Biso   1.000  O
  O20      1.0000 0.86430  0.86430  0.69750  Biso   1.000  O
  O21      1.0000 0.57390  0.69750  0.86430  Biso   1.000  O
  O22      1.0000 0.86430  0.86430  0.57390  Biso   1.000  O
  O23      1.0000 0.86430  0.57390  0.86430  Biso   1.000  O
  O24      1.0000 0.69750  0.86430  0.57390  Biso   1.000  O
  O25      1.0000 0.86430  0.69750  0.86430  Biso   1.000  O
  O26      1.0000 0.57390  0.86430  0.69750  Biso   1.000  O
  Zn9      1.0000 0.00000  0.00000  0.00000  Biso   1.000  Zn
  Zn10     1.0000 0.82527  0.17473  0.00000  Biso   1.000  Zn
  Zn11     1.0000 0.82527  1.00000  0.17473  Biso   1.000  Zn
  Zn12     1.0000 0.82527  0.00000  0.00000  Biso   1.000  Zn
  Zn13     1.0000 0.41140  0.41140  0.58612  Biso   1.000  Zn
  Zn14     1.0000 0.23667  0.58612  0.58612  Biso   1.000  Zn
  Zn15     1.0000 0.41140  0.58612  0.41140  Biso   1.000  Zn
  Zn16     1.0000 0.41140  0.58612  0.58612  Biso   1.000  Zn
  C49      1.0000 0.14986  0.21087  0.81964  Biso   1.000  C
  C50      1.0000 0.03614  0.32458  0.81964  Biso   1.000  C
  C51      1.0000 0.64491  0.81964  0.32458  Biso   1.000  C
  C52      1.0000 0.64491  0.81964  0.21087  Biso   1.000  C
  C53      1.0000 0.14986  0.81964  0.81964  Biso   1.000  C
  C54      1.0000 0.03614  0.81964  0.81964  Biso   1.000  C
  C55      1.0000 0.64491  0.32458  0.21087  Biso   1.000  C
  C56      1.0000 0.64491  0.21087  0.32458  Biso   1.000  C
  C57      1.0000 0.14986  0.81964  0.21087  Biso   1.000  C
  C58      1.0000 0.03614  0.81964  0.32458  Biso   1.000  C
  C59      1.0000 0.64491  0.21087  0.81964  Biso   1.000  C
  C60      1.0000 0.64491  0.32458  0.81964  Biso   1.000  C
  C61      1.0000 0.20053  0.26154  0.76649  Biso   1.000  C
  C62      1.0000 0.08681  0.37526  0.76649  Biso   1.000  C
  C63      1.0000 0.59176  0.76649  0.26154  Biso   1.000  C
  C64      1.0000 0.59176  0.76649  0.37526  Biso   1.000  C
  C65      1.0000 0.59176  0.26154  0.76649  Biso   1.000  C
  C66      1.0000 0.59176  0.37526  0.76649  Biso   1.000  C
  C67      1.0000 0.08681  0.76649  0.37526  Biso   1.000  C
  C68      1.0000 0.20053  0.76649  0.26154  Biso   1.000  C
  C69      1.0000 0.59176  0.26154  0.37526  Biso   1.000  C
  C70      1.0000 0.59176  0.37526  0.26154  Biso   1.000  C
  C71      1.0000 0.20053  0.76649  0.76649  Biso   1.000  C
  C72      1.0000 0.08681  0.76649  0.76649  Biso   1.000  C
  C73      1.0000 0.06407  0.23880  0.84857  Biso   1.000  C
  C74      1.0000 0.00831  0.18304  0.90433  Biso   1.000  C
  C75      1.0000 0.67384  0.84857  0.23880  Biso   1.000  C
  C76      1.0000 0.72960  0.90433  0.18304  Biso   1.000  C
  C77      1.0000 0.06407  0.84857  0.84857  Biso   1.000  C
  C78      1.0000 0.00831  0.90433  0.90433  Biso   1.000  C
  C79      1.0000 0.67384  0.23880  0.23880  Biso   1.000  C
  C80      1.0000 0.72960  0.18304  0.18304  Biso   1.000  C
  C81      1.0000 0.06407  0.84857  0.23880  Biso   1.000  C
  C82      1.0000 0.00831  0.90433  0.18304  Biso   1.000  C
  C83      1.0000 0.67384  0.23880  0.84857  Biso   1.000  C
  C84      1.0000 0.72960  0.18304  0.90433  Biso   1.000  C
  C85      1.0000 0.17260  0.34733  0.73756  Biso   1.000  C
  C86      1.0000 0.22836  0.40309  0.68180  Biso   1.000  C
  C87      1.0000 0.56283  0.73756  0.34733  Biso   1.000  C
  C88      1.0000 0.50707  0.68180  0.40309  Biso   1.000  C
  C89      1.0000 0.56283  0.34733  0.73756  Biso   1.000  C
  C90      1.0000 0.50707  0.40309  0.68180  Biso   1.000  C
  C91      1.0000 0.17260  0.73756  0.34733  Biso   1.000  C
  C92      1.0000 0.22836  0.68180  0.40309  Biso   1.000  C
  C93      1.0000 0.56283  0.34733  0.34733  Biso   1.000  C
  C94      1.0000 0.50707  0.40309  0.40309  Biso   1.000  C
  C95      1.0000 0.17260  0.73756  0.73756  Biso   1.000  C
  C96      1.0000 0.22836  0.68180  0.68180  Biso   1.000  C
  O27      1.0000 0.86896  0.04368  0.04368  Biso   1.000  O
  O28      1.0000 0.36772  0.54244  0.54244  Biso   1.000  O
  O29      1.0000 0.04402  0.09944  0.92827  Biso   1.000  O
  O30      1.0000 0.92472  0.21875  0.92827  Biso   1.000  O
  O31      1.0000 0.75354  0.92827  0.21875  Biso   1.000  O
  O32      1.0000 0.75354  0.92827  0.09944  Biso   1.000  O
  O33      1.0000 0.04402  0.92827  0.92827  Biso   1.000  O
  O34      1.0000 0.92472  0.92827  0.92827  Biso   1.000  O
  O35      1.0000 0.75354  0.21875  0.09944  Biso   1.000  O
  O36      1.0000 0.75354  0.09944  0.21875  Biso   1.000  O
  O37      1.0000 0.04402  0.92827  0.09944  Biso   1.000  O
  O38      1.0000 0.92472  0.92827  0.21875  Biso   1.000  O
  O39      1.0000 0.75354  0.09944  0.92827  Biso   1.000  O
  O40      1.0000 0.75354  0.21875  0.92827  Biso   1.000  O
  O41      1.0000 0.31196  0.36738  0.65786  Biso   1.000  O
  O42      1.0000 0.19265  0.48668  0.65786  Biso   1.000  O
  O43      1.0000 0.48313  0.65786  0.36738  Biso   1.000  O
  O44      1.0000 0.48313  0.65786  0.48668  Biso   1.000  O
  O45      1.0000 0.48313  0.36738  0.65786  Biso   1.000  O
  O46      1.0000 0.48313  0.48668  0.65786  Biso   1.000  O
  O47      1.0000 0.19265  0.65786  0.48668  Biso   1.000  O
  O48      1.0000 0.31196  0.65786  0.36738  Biso   1.000  O
  O49      1.0000 0.48313  0.36738  0.48668  Biso   1.000  O
  O50      1.0000 0.48313  0.48668  0.36738  Biso   1.000  O
  O51      1.0000 0.31196  0.65786  0.65786  Biso   1.000  O
  O52      1.0000 0.19265  0.65786  0.65786  Biso   1.000  O
  H25      1.0000 0.18216  0.13401  0.84192  Biso   1.000  H
  H26      1.0000 0.95928  0.35688  0.84192  Biso   1.000  H
  H27      1.0000 0.66720  0.84192  0.35688  Biso   1.000  H
  H28      1.0000 0.66720  0.84192  0.13401  Biso   1.000  H
  H29      1.0000 0.95928  0.84192  0.84192  Biso   1.000  H
  H30      1.0000 0.66720  0.35688  0.13401  Biso   1.000  H
  H31      1.0000 0.66720  0.13401  0.35688  Biso   1.000  H
  H32      1.0000 0.18216  0.84192  0.13401  Biso   1.000  H
  H33      1.0000 0.95928  0.84192  0.35688  Biso   1.000  H
  H34      1.0000 0.66720  0.13401  0.84192  Biso   1.000  H
  H35      1.0000 0.66720  0.35688  0.84192  Biso   1.000  H
  H36      1.0000 0.27739  0.22924  0.74420  Biso   1.000  H
  H37      1.0000 0.05451  0.45212  0.74420  Biso   1.000  H
  H38      1.0000 0.56948  0.74420  0.22924  Biso   1.000  H
  H39      1.0000 0.56948  0.74420  0.45212  Biso   1.000  H
  H40      1.0000 0.56948  0.22924  0.74420  Biso   1.000  H
  H41      1.0000 0.56948  0.45212  0.74420  Biso   1.000  H
  H42      1.0000 0.05451  0.74420  0.45212  Biso   1.000  H
  H43      1.0000 0.27739  0.74420  0.22924  Biso   1.000  H
  H44      1.0000 0.56948  0.45212  0.22924  Biso   1.000  H
  H45      1.0000 0.27739  0.74420  0.74420  Biso   1.000  H
  H46      1.0000 0.05451  0.74420  0.74420  Biso   1.000  H
  H47      1.0000 0.56948  0.22924  0.45212  Biso   1.000  H
