data_image0
_cell_length_a       18.0897
_cell_length_b       18.0897
_cell_length_c       18.0897
_cell_angle_alpha    60
_cell_angle_beta     60
_cell_angle_gamma    60

_symmetry_space_group_name_H-M    "P 1"
_symmetry_int_tables_number       1

loop_
  _symmetry_equiv_pos_as_xyz
  'x, y, z'

loop_
  _atom_site_label
  _atom_site_occupancy
  _atom_site_fract_x
  _atom_site_fract_y
  _atom_site_fract_z
  _atom_site_thermal_displace_type
  _atom_site_B_iso_or_equiv
  _atom_site_type_symbol
  Zn1      1.0000 0.38110  0.20630  0.20630  Biso   1.000  Zn
  Zn2      1.0000 0.20630  0.38110  0.20630  Biso   1.000  Zn
  Zn3      1.0000 0.20630  0.20630  0.38110  Biso   1.000  Zn
  Zn4      1.0000 0.20630  0.20630  0.20630  Biso   1.000  Zn
  Zn5      1.0000 0.79370  0.61890  0.79370  Biso   1.000  Zn
  Zn6      1.0000 0.61890  0.79370  0.79370  Biso   1.000  Zn
  Zn7      1.0000 0.79370  0.79370  0.61890  Biso   1.000  Zn
  Zn8      1.0000 0.79370  0.79370  0.79370  Biso   1.000  Zn
  H1       1.0000 0.35200  0.04240  0.56320  Biso   1.000  H
  H2       1.0000 0.04240  0.35200  0.04240  Biso   1.000  H
  H3       1.0000 0.56320  0.04240  0.35200  Biso   1.000  H
  H4       1.0000 0.04240  0.56320  0.04240  Biso   1.000  H
  H5       1.0000 0.35200  0.56320  0.04240  Biso   1.000  H
  H6       1.0000 0.04240  0.04240  0.56320  Biso   1.000  H
  H7       1.0000 0.56320  0.35200  0.04240  Biso   1.000  H
  H8       1.0000 0.04240  0.04240  0.35200  Biso   1.000  H
  H9       1.0000 0.35200  0.04240  0.04240  Biso   1.000  H
  H10      1.0000 0.04240  0.56320  0.35200  Biso   1.000  H
  H11      1.0000 0.56320  0.04240  0.04240  Biso   1.000  H
  H12      1.0000 0.04240  0.35200  0.56320  Biso   1.000  H
  H13      1.0000 0.95760  0.64800  0.43680  Biso   1.000  H
  H14      1.0000 0.64800  0.95760  0.95760  Biso   1.000  H
  H15      1.0000 0.95760  0.43680  0.64800  Biso   1.000  H
  H16      1.0000 0.43680  0.95760  0.95760  Biso   1.000  H
  H17      1.0000 0.43680  0.64800  0.95760  Biso   1.000  H
  H18      1.0000 0.95760  0.95760  0.43680  Biso   1.000  H
  H19      1.0000 0.64800  0.43680  0.95760  Biso   1.000  H
  H20      1.0000 0.95760  0.95760  0.64800  Biso   1.000  H
  H21      1.0000 0.95760  0.64800  0.95760  Biso   1.000  H
  H22      1.0000 0.43680  0.95760  0.64800  Biso   1.000  H
  H23      1.0000 0.95760  0.43680  0.95760  Biso   1.000  H
  H24      1.0000 0.64800  0.95760  0.43680  Biso   1.000  H
  C1       1.0000 0.41430  0.02590  0.53390  Biso   1.000  C
  C2       1.0000 0.02590  0.41430  0.02590  Biso   1.000  C
  C3       1.0000 0.53390  0.02590  0.41430  Biso   1.000  C
  C4       1.0000 0.02590  0.53390  0.02590  Biso   1.000  C
  C5       1.0000 0.41430  0.53390  0.02590  Biso   1.000  C
  C6       1.0000 0.02590  0.02590  0.53390  Biso   1.000  C
  C7       1.0000 0.53390  0.41430  0.02590  Biso   1.000  C
  C8       1.0000 0.02590  0.02590  0.41430  Biso   1.000  C
  C9       1.0000 0.41430  0.02590  0.02590  Biso   1.000  C
  C10      1.0000 0.02590  0.53390  0.41430  Biso   1.000  C
  C11      1.0000 0.53390  0.02590  0.02590  Biso   1.000  C
  C12      1.0000 0.02590  0.41430  0.53390  Biso   1.000  C
  C13      1.0000 0.97410  0.58570  0.46610  Biso   1.000  C
  C14      1.0000 0.58570  0.97410  0.97410  Biso   1.000  C
  C15      1.0000 0.97410  0.46610  0.58570  Biso   1.000  C
  C16      1.0000 0.46610  0.97410  0.97410  Biso   1.000  C
  C17      1.0000 0.46610  0.58570  0.97410  Biso   1.000  C
  C18      1.0000 0.97410  0.97410  0.46610  Biso   1.000  C
  C19      1.0000 0.58570  0.46610  0.97410  Biso   1.000  C
  C20      1.0000 0.97410  0.97410  0.58570  Biso   1.000  C
  C21      1.0000 0.97410  0.58570  0.97410  Biso   1.000  C
  C22      1.0000 0.46610  0.97410  0.58570  Biso   1.000  C
  C23      1.0000 0.97410  0.46610  0.97410  Biso   1.000  C
  C24      1.0000 0.58570  0.97410  0.46610  Biso   1.000  C
  C25      1.0000 0.38580  0.11420  0.38580  Biso   1.000  C
  C26      1.0000 0.44340  0.05660  0.44340  Biso   1.000  C
  C27      1.0000 0.11420  0.38580  0.11420  Biso   1.000  C
  C28      1.0000 0.05660  0.44340  0.05660  Biso   1.000  C
  C29      1.0000 0.38580  0.38580  0.11420  Biso   1.000  C
  C30      1.0000 0.44340  0.44340  0.05660  Biso   1.000  C
  C31      1.0000 0.11420  0.11420  0.38580  Biso   1.000  C
  C32      1.0000 0.05660  0.05660  0.44340  Biso   1.000  C
  C33      1.0000 0.38580  0.11420  0.11420  Biso   1.000  C
  C34      1.0000 0.44340  0.05660  0.05660  Biso   1.000  C
  C35      1.0000 0.11420  0.38580  0.38580  Biso   1.000  C
  C36      1.0000 0.05660  0.44340  0.44340  Biso   1.000  C
  C37      1.0000 0.88580  0.61420  0.61420  Biso   1.000  C
  C38      1.0000 0.94340  0.55660  0.55660  Biso   1.000  C
  C39      1.0000 0.61420  0.88580  0.88580  Biso   1.000  C
  C40      1.0000 0.55660  0.94340  0.94340  Biso   1.000  C
  C41      1.0000 0.61420  0.61420  0.88580  Biso   1.000  C
  C42      1.0000 0.55660  0.55660  0.94340  Biso   1.000  C
  C43      1.0000 0.88580  0.88580  0.61420  Biso   1.000  C
  C44      1.0000 0.94340  0.94340  0.55660  Biso   1.000  C
  C45      1.0000 0.88580  0.61420  0.88580  Biso   1.000  C
  C46      1.0000 0.94340  0.55660  0.94340  Biso   1.000  C
  C47      1.0000 0.61420  0.88580  0.61420  Biso   1.000  C
  C48      1.0000 0.55660  0.94340  0.55660  Biso   1.000  C
  O1       1.0000 0.25000  0.25000  0.25000  Biso   1.000  O
  O2       1.0000 0.75000  0.75000  0.75000  Biso   1.000  O
  O3       1.0000 0.42610  0.13570  0.30250  Biso   1.000  O
  O4       1.0000 0.13570  0.42610  0.13570  Biso   1.000  O
  O5       1.0000 0.30250  0.13570  0.42610  Biso   1.000  O
  O6       1.0000 0.13570  0.30250  0.13570  Biso   1.000  O
  O7       1.0000 0.42610  0.30250  0.13570  Biso   1.000  O
  O8       1.0000 0.13570  0.13570  0.30250  Biso   1.000  O
  O9       1.0000 0.30250  0.42610  0.13570  Biso   1.000  O
  O10      1.0000 0.13570  0.13570  0.42610  Biso   1.000  O
  O11      1.0000 0.42610  0.13570  0.13570  Biso   1.000  O
  O12      1.0000 0.13570  0.30250  0.42610  Biso   1.000  O
  O13      1.0000 0.30250  0.13570  0.13570  Biso   1.000  O
  O14      1.0000 0.13570  0.42610  0.30250  Biso   1.000  O
  O15      1.0000 0.86430  0.57390  0.69750  Biso   1.000  O
  O16      1.0000 0.57390  0.86430  0.86430  Biso   1.000  O
  O17      1.0000 0.86430  0.69750  0.57390  Biso   1.000  O
  O18      1.0000 0.69750  0.86430  0.86430  Biso   1.000  O
  O19      1.0000 0.69750  0.57390  0.86430  Biso   1.000  O
  O20      1.0000 0.86430  0.86430  0.69750  Biso   1.000  O
  O21      1.0000 0.57390  0.69750  0.86430  Biso   1.000  O
  O22      1.0000 0.86430  0.86430  0.57390  Biso   1.000  O
  O23      1.0000 0.86430  0.57390  0.86430  Biso   1.000  O
  O24      1.0000 0.69750  0.86430  0.57390  Biso   1.000  O
  O25      1.0000 0.86430  0.69750  0.86430  Biso   1.000  O
  O26      1.0000 0.57390  0.86430  0.69750  Biso   1.000  O
  Zn9      1.0000 0.01878  0.95748  0.00000  Biso   1.000  Zn
  Zn10     1.0000 0.01878  0.13477  0.00000  Biso   1.000  Zn
  Zn11     1.0000 0.84149  0.13477  0.00000  Biso   1.000  Zn
  Zn12     1.0000 0.01878  0.13477  0.82271  Biso   1.000  Zn
  Zn13     1.0000 0.44802  0.54016  0.40539  Biso   1.000  Zn
  Zn14     1.0000 0.44802  0.71745  0.40539  Biso   1.000  Zn
  Zn15     1.0000 0.62531  0.54016  0.40539  Biso   1.000  Zn
  Zn16     1.0000 0.44802  0.54016  0.58268  Biso   1.000  Zn
  H25      1.0000 0.88450  0.77381  0.15897  Biso   1.000  H
  H26      1.0000 0.17775  0.29374  0.86572  Biso   1.000  H
  H27      1.0000 0.65783  0.00049  0.15897  Biso   1.000  H
  H28      1.0000 0.17775  0.29374  0.63905  Biso   1.000  H
  H29      1.0000 0.65783  0.29374  0.86572  Biso   1.000  H
  H30      1.0000 0.17775  0.00049  0.15897  Biso   1.000  H
  H31      1.0000 0.88450  0.29374  0.63905  Biso   1.000  H
  H32      1.0000 0.17775  0.77381  0.15897  Biso   1.000  H
  H33      1.0000 0.17775  0.00049  0.63905  Biso   1.000  H
  H34      1.0000 0.88450  0.29374  0.15897  Biso   1.000  H
  H35      1.0000 0.17775  0.77381  0.86572  Biso   1.000  H
  H36      1.0000 0.65783  0.29374  0.15897  Biso   1.000  H
  H37      1.0000 0.58230  0.38119  0.24642  Biso   1.000  H
  H38      1.0000 0.28905  0.90111  0.53968  Biso   1.000  H
  H39      1.0000 0.80898  0.38119  0.24642  Biso   1.000  H
  H40      1.0000 0.28905  0.67444  0.76635  Biso   1.000  H
  H41      1.0000 0.80898  0.38119  0.53968  Biso   1.000  H
  H42      1.0000 0.28905  0.90111  0.24642  Biso   1.000  H
  H43      1.0000 0.58230  0.38119  0.76635  Biso   1.000  H
  H44      1.0000 0.28905  0.67444  0.24642  Biso   1.000  H
  H45      1.0000 0.28905  0.38119  0.76635  Biso   1.000  H
  H46      1.0000 0.58230  0.90111  0.24642  Biso   1.000  H
  H47      1.0000 0.28905  0.38119  0.53968  Biso   1.000  H
  H48      1.0000 0.80898  0.67444  0.24642  Biso   1.000  H
  C49      1.0000 0.81447  0.79729  0.18225  Biso   1.000  C
  C50      1.0000 0.20103  0.31702  0.79569  Biso   1.000  C
  C51      1.0000 0.68130  0.93046  0.18225  Biso   1.000  C
  C52      1.0000 0.20103  0.31702  0.66252  Biso   1.000  C
  C53      1.0000 0.68130  0.31702  0.79569  Biso   1.000  C
  C54      1.0000 0.20103  0.93046  0.18225  Biso   1.000  C
  C55      1.0000 0.81447  0.31702  0.66252  Biso   1.000  C
  C56      1.0000 0.20103  0.79729  0.18225  Biso   1.000  C
  C57      1.0000 0.20103  0.93046  0.66252  Biso   1.000  C
  C58      1.0000 0.81447  0.31702  0.18225  Biso   1.000  C
  C59      1.0000 0.20103  0.79729  0.79569  Biso   1.000  C
  C60      1.0000 0.68130  0.31702  0.18225  Biso   1.000  C
  C61      1.0000 0.65233  0.35791  0.22315  Biso   1.000  C
  C62      1.0000 0.26578  0.87764  0.60970  Biso   1.000  C
  C63      1.0000 0.78550  0.35791  0.22315  Biso   1.000  C
  C64      1.0000 0.26578  0.74447  0.74287  Biso   1.000  C
  C65      1.0000 0.78550  0.35791  0.60970  Biso   1.000  C
  C66      1.0000 0.26578  0.87764  0.22315  Biso   1.000  C
  C67      1.0000 0.65233  0.35791  0.74287  Biso   1.000  C
  C68      1.0000 0.26578  0.74447  0.22315  Biso   1.000  C
  C69      1.0000 0.26578  0.35791  0.74287  Biso   1.000  C
  C70      1.0000 0.65233  0.87764  0.22315  Biso   1.000  C
  C71      1.0000 0.26578  0.35791  0.60970  Biso   1.000  C
  C72      1.0000 0.78550  0.74447  0.22315  Biso   1.000  C
  C73      1.0000 0.83127  0.94726  0.09886  Biso   1.000  C
  C74      1.0000 0.77713  0.89312  0.15300  Biso   1.000  C
  C75      1.0000 0.11765  0.23363  0.81249  Biso   1.000  C
  C76      1.0000 0.17178  0.28777  0.75835  Biso   1.000  C
  C77      1.0000 0.83127  0.23363  0.81249  Biso   1.000  C
  C78      1.0000 0.77713  0.28777  0.75835  Biso   1.000  C
  C79      1.0000 0.11765  0.94726  0.09886  Biso   1.000  C
  C80      1.0000 0.17178  0.89312  0.15300  Biso   1.000  C
  C81      1.0000 0.11765  0.94726  0.81249  Biso   1.000  C
  C82      1.0000 0.17178  0.89312  0.75835  Biso   1.000  C
  C83      1.0000 0.83127  0.23363  0.09886  Biso   1.000  C
  C84      1.0000 0.77713  0.28777  0.15300  Biso   1.000  C
  C85      1.0000 0.63553  0.44130  0.30653  Biso   1.000  C
  C86      1.0000 0.68967  0.38716  0.25239  Biso   1.000  C
  C87      1.0000 0.34916  0.72767  0.59290  Biso   1.000  C
  C88      1.0000 0.29502  0.78181  0.64704  Biso   1.000  C
  C89      1.0000 0.63553  0.44130  0.59290  Biso   1.000  C
  C90      1.0000 0.68967  0.38716  0.64704  Biso   1.000  C
  C91      1.0000 0.34916  0.72767  0.30653  Biso   1.000  C
  C92      1.0000 0.29502  0.78181  0.25239  Biso   1.000  C
  C93      1.0000 0.34916  0.44130  0.59290  Biso   1.000  C
  C94      1.0000 0.29502  0.38716  0.64704  Biso   1.000  C
  C95      1.0000 0.63553  0.72767  0.30653  Biso   1.000  C
  C96      1.0000 0.68967  0.78181  0.25239  Biso   1.000  C
  O27      1.0000 0.97446  0.09045  0.95568  Biso   1.000  O
  O28      1.0000 0.49234  0.58448  0.44972  Biso   1.000  O
  O29      1.0000 0.91890  0.91103  0.07316  Biso   1.000  O
  O30      1.0000 0.09194  0.20793  0.90012  Biso   1.000  O
  O31      1.0000 0.79504  0.03489  0.07316  Biso   1.000  O
  O32      1.0000 0.09194  0.20793  0.77626  Biso   1.000  O
  O33      1.0000 0.79504  0.20793  0.90012  Biso   1.000  O
  O34      1.0000 0.09194  0.03489  0.07316  Biso   1.000  O
  O35      1.0000 0.91890  0.20793  0.77626  Biso   1.000  O
  O36      1.0000 0.09194  0.91103  0.07316  Biso   1.000  O
  O37      1.0000 0.09194  0.03489  0.77626  Biso   1.000  O
  O38      1.0000 0.91890  0.20793  0.07316  Biso   1.000  O
  O39      1.0000 0.09194  0.91103  0.90012  Biso   1.000  O
  O40      1.0000 0.79504  0.20793  0.07316  Biso   1.000  O
  O41      1.0000 0.54790  0.46700  0.33223  Biso   1.000  O
  O42      1.0000 0.37486  0.76390  0.50527  Biso   1.000  O
  O43      1.0000 0.67176  0.46700  0.33223  Biso   1.000  O
  O44      1.0000 0.37486  0.64004  0.62913  Biso   1.000  O
  O45      1.0000 0.67176  0.46700  0.50527  Biso   1.000  O
  O46      1.0000 0.37486  0.76390  0.33223  Biso   1.000  O
  O47      1.0000 0.54790  0.46700  0.62913  Biso   1.000  O
  O48      1.0000 0.37486  0.64004  0.33223  Biso   1.000  O
  O49      1.0000 0.37486  0.46700  0.62913  Biso   1.000  O
  O50      1.0000 0.54790  0.76390  0.33223  Biso   1.000  O
  O51      1.0000 0.37486  0.46700  0.50527  Biso   1.000  O
