data_image0
_cell_length_a       18.0897
_cell_length_b       18.0897
_cell_length_c       18.0897
_cell_angle_alpha    60
_cell_angle_beta     60
_cell_angle_gamma    60

_symmetry_space_group_name_H-M    "P 1"
_symmetry_int_tables_number       1

loop_
  _symmetry_equiv_pos_as_xyz
  'x, y, z'

loop_
  _atom_site_label
  _atom_site_occupancy
  _atom_site_fract_x
  _atom_site_fract_y
  _atom_site_fract_z
  _atom_site_thermal_displace_type
  _atom_site_B_iso_or_equiv
  _atom_site_type_symbol
  Zn1      1.0000 0.38110  0.20630  0.20630  Biso   1.000  Zn
  Zn2      1.0000 0.20630  0.38110  0.20630  Biso   1.000  Zn
  Zn3      1.0000 0.20630  0.20630  0.38110  Biso   1.000  Zn
  Zn4      1.0000 0.20630  0.20630  0.20630  Biso   1.000  Zn
  Zn5      1.0000 0.79370  0.61890  0.79370  Biso   1.000  Zn
  Zn6      1.0000 0.61890  0.79370  0.79370  Biso   1.000  Zn
  Zn7      1.0000 0.79370  0.79370  0.61890  Biso   1.000  Zn
  Zn8      1.0000 0.79370  0.79370  0.79370  Biso   1.000  Zn
  H1       1.0000 0.35200  0.04240  0.56320  Biso   1.000  H
  H2       1.0000 0.04240  0.35200  0.04240  Biso   1.000  H
  H3       1.0000 0.56320  0.04240  0.35200  Biso   1.000  H
  H4       1.0000 0.04240  0.56320  0.04240  Biso   1.000  H
  H5       1.0000 0.35200  0.56320  0.04240  Biso   1.000  H
  H6       1.0000 0.04240  0.04240  0.56320  Biso   1.000  H
  H7       1.0000 0.56320  0.35200  0.04240  Biso   1.000  H
  H8       1.0000 0.04240  0.04240  0.35200  Biso   1.000  H
  H9       1.0000 0.35200  0.04240  0.04240  Biso   1.000  H
  H10      1.0000 0.04240  0.56320  0.35200  Biso   1.000  H
  H11      1.0000 0.56320  0.04240  0.04240  Biso   1.000  H
  H12      1.0000 0.04240  0.35200  0.56320  Biso   1.000  H
  H13      1.0000 0.95760  0.64800  0.43680  Biso   1.000  H
  H14      1.0000 0.64800  0.95760  0.95760  Biso   1.000  H
  H15      1.0000 0.95760  0.43680  0.64800  Biso   1.000  H
  H16      1.0000 0.43680  0.95760  0.95760  Biso   1.000  H
  H17      1.0000 0.43680  0.64800  0.95760  Biso   1.000  H
  H18      1.0000 0.95760  0.95760  0.43680  Biso   1.000  H
  H19      1.0000 0.64800  0.43680  0.95760  Biso   1.000  H
  H20      1.0000 0.95760  0.95760  0.64800  Biso   1.000  H
  H21      1.0000 0.95760  0.64800  0.95760  Biso   1.000  H
  H22      1.0000 0.43680  0.95760  0.64800  Biso   1.000  H
  H23      1.0000 0.95760  0.43680  0.95760  Biso   1.000  H
  H24      1.0000 0.64800  0.95760  0.43680  Biso   1.000  H
  C1       1.0000 0.41430  0.02590  0.53390  Biso   1.000  C
  C2       1.0000 0.02590  0.41430  0.02590  Biso   1.000  C
  C3       1.0000 0.53390  0.02590  0.41430  Biso   1.000  C
  C4       1.0000 0.02590  0.53390  0.02590  Biso   1.000  C
  C5       1.0000 0.41430  0.53390  0.02590  Biso   1.000  C
  C6       1.0000 0.02590  0.02590  0.53390  Biso   1.000  C
  C7       1.0000 0.53390  0.41430  0.02590  Biso   1.000  C
  C8       1.0000 0.02590  0.02590  0.41430  Biso   1.000  C
  C9       1.0000 0.41430  0.02590  0.02590  Biso   1.000  C
  C10      1.0000 0.02590  0.53390  0.41430  Biso   1.000  C
  C11      1.0000 0.53390  0.02590  0.02590  Biso   1.000  C
  C12      1.0000 0.02590  0.41430  0.53390  Biso   1.000  C
  C13      1.0000 0.97410  0.58570  0.46610  Biso   1.000  C
  C14      1.0000 0.58570  0.97410  0.97410  Biso   1.000  C
  C15      1.0000 0.97410  0.46610  0.58570  Biso   1.000  C
  C16      1.0000 0.46610  0.97410  0.97410  Biso   1.000  C
  C17      1.0000 0.46610  0.58570  0.97410  Biso   1.000  C
  C18      1.0000 0.97410  0.97410  0.46610  Biso   1.000  C
  C19      1.0000 0.58570  0.46610  0.97410  Biso   1.000  C
  C20      1.0000 0.97410  0.97410  0.58570  Biso   1.000  C
  C21      1.0000 0.97410  0.58570  0.97410  Biso   1.000  C
  C22      1.0000 0.46610  0.97410  0.58570  Biso   1.000  C
  C23      1.0000 0.97410  0.46610  0.97410  Biso   1.000  C
  C24      1.0000 0.58570  0.97410  0.46610  Biso   1.000  C
  C25      1.0000 0.38580  0.11420  0.38580  Biso   1.000  C
  C26      1.0000 0.44340  0.05660  0.44340  Biso   1.000  C
  C27      1.0000 0.11420  0.38580  0.11420  Biso   1.000  C
  C28      1.0000 0.05660  0.44340  0.05660  Biso   1.000  C
  C29      1.0000 0.38580  0.38580  0.11420  Biso   1.000  C
  C30      1.0000 0.44340  0.44340  0.05660  Biso   1.000  C
  C31      1.0000 0.11420  0.11420  0.38580  Biso   1.000  C
  C32      1.0000 0.05660  0.05660  0.44340  Biso   1.000  C
  C33      1.0000 0.38580  0.11420  0.11420  Biso   1.000  C
  C34      1.0000 0.44340  0.05660  0.05660  Biso   1.000  C
  C35      1.0000 0.11420  0.38580  0.38580  Biso   1.000  C
  C36      1.0000 0.05660  0.44340  0.44340  Biso   1.000  C
  C37      1.0000 0.88580  0.61420  0.61420  Biso   1.000  C
  C38      1.0000 0.94340  0.55660  0.55660  Biso   1.000  C
  C39      1.0000 0.61420  0.88580  0.88580  Biso   1.000  C
  C40      1.0000 0.55660  0.94340  0.94340  Biso   1.000  C
  C41      1.0000 0.61420  0.61420  0.88580  Biso   1.000  C
  C42      1.0000 0.55660  0.55660  0.94340  Biso   1.000  C
  C43      1.0000 0.88580  0.88580  0.61420  Biso   1.000  C
  C44      1.0000 0.94340  0.94340  0.55660  Biso   1.000  C
  C45      1.0000 0.88580  0.61420  0.88580  Biso   1.000  C
  C46      1.0000 0.94340  0.55660  0.94340  Biso   1.000  C
  C47      1.0000 0.61420  0.88580  0.61420  Biso   1.000  C
  C48      1.0000 0.55660  0.94340  0.55660  Biso   1.000  C
  O1       1.0000 0.25000  0.25000  0.25000  Biso   1.000  O
  O2       1.0000 0.75000  0.75000  0.75000  Biso   1.000  O
  O3       1.0000 0.42610  0.13570  0.30250  Biso   1.000  O
  O4       1.0000 0.13570  0.42610  0.13570  Biso   1.000  O
  O5       1.0000 0.30250  0.13570  0.42610  Biso   1.000  O
  O6       1.0000 0.13570  0.30250  0.13570  Biso   1.000  O
  O7       1.0000 0.42610  0.30250  0.13570  Biso   1.000  O
  O8       1.0000 0.13570  0.13570  0.30250  Biso   1.000  O
  O9       1.0000 0.30250  0.42610  0.13570  Biso   1.000  O
  O10      1.0000 0.13570  0.13570  0.42610  Biso   1.000  O
  O11      1.0000 0.42610  0.13570  0.13570  Biso   1.000  O
  O12      1.0000 0.13570  0.30250  0.42610  Biso   1.000  O
  O13      1.0000 0.30250  0.13570  0.13570  Biso   1.000  O
  O14      1.0000 0.13570  0.42610  0.30250  Biso   1.000  O
  O15      1.0000 0.86430  0.57390  0.69750  Biso   1.000  O
  O16      1.0000 0.57390  0.86430  0.86430  Biso   1.000  O
  O17      1.0000 0.86430  0.69750  0.57390  Biso   1.000  O
  O18      1.0000 0.69750  0.86430  0.86430  Biso   1.000  O
  O19      1.0000 0.69750  0.57390  0.86430  Biso   1.000  O
  O20      1.0000 0.86430  0.86430  0.69750  Biso   1.000  O
  O21      1.0000 0.57390  0.69750  0.86430  Biso   1.000  O
  O22      1.0000 0.86430  0.86430  0.57390  Biso   1.000  O
  O23      1.0000 0.86430  0.57390  0.86430  Biso   1.000  O
  O24      1.0000 0.69750  0.86430  0.57390  Biso   1.000  O
  O25      1.0000 0.86430  0.69750  0.86430  Biso   1.000  O
  O26      1.0000 0.57390  0.86430  0.69750  Biso   1.000  O
  Zn9      1.0000 0.00000  0.00000  0.00000  Biso   1.000  Zn
  Zn10     1.0000 0.40731  0.40730  0.59268  Biso   1.000  Zn
  Zn11     1.0000 0.23138  0.58322  0.59268  Biso   1.000  Zn
  Zn12     1.0000 0.82407  0.17592  0.00000  Biso   1.000  Zn
  Zn13     1.0000 0.82387  0.99980  0.17607  Biso   1.000  Zn
  Zn14     1.0000 0.82401  0.99993  0.99979  Biso   1.000  Zn
  Zn15     1.0000 0.40751  0.58342  0.41662  Biso   1.000  Zn
  Zn16     1.0000 0.40737  0.58329  0.59289  Biso   1.000  Zn
  H25      1.0000 0.65990  0.35151  0.14267  Biso   1.000  H
  H26      1.0000 0.65675  0.14243  0.35850  Biso   1.000  H
  H27      1.0000 0.66355  0.34950  0.83744  Biso   1.000  H
  H28      1.0000 0.66303  0.14124  0.83209  Biso   1.000  H
  H29      1.0000 0.17469  0.14185  0.83925  Biso   1.000  H
  H30      1.0000 0.05579  0.74741  0.45002  Biso   1.000  H
  H31      1.0000 0.26488  0.75055  0.23419  Biso   1.000  H
  H32      1.0000 0.05779  0.74376  0.75525  Biso   1.000  H
  H33      1.0000 0.26606  0.74427  0.76059  Biso   1.000  H
  H34      1.0000 0.26545  0.23261  0.75343  Biso   1.000  H
  H35      1.0000 0.57148  0.23172  0.45002  Biso   1.000  H
  H36      1.0000 0.57463  0.44080  0.23419  Biso   1.000  H
  H37      1.0000 0.56783  0.23372  0.75525  Biso   1.000  H
  H38      1.0000 0.56835  0.44198  0.76059  Biso   1.000  H
  H39      1.0000 0.05669  0.44137  0.75343  Biso   1.000  H
  H40      1.0000 0.17559  0.83581  0.14267  Biso   1.000  H
  H41      1.0000 0.96650  0.83267  0.35850  Biso   1.000  H
  H42      1.0000 0.17359  0.83946  0.83744  Biso   1.000  H
  H43      1.0000 0.96532  0.83896  0.83209  Biso   1.000  H
  H44      1.0000 0.96593  0.35061  0.83925  Biso   1.000  H
  H45      1.0000 0.66120  0.83712  0.14196  Biso   1.000  H
  H46      1.0000 0.65847  0.83439  0.36243  Biso   1.000  H
  H47      1.0000 0.57018  0.74610  0.45072  Biso   1.000  H
  H48      1.0000 0.57291  0.74883  0.23025  Biso   1.000  H
  C49      1.0000 0.72850  0.18572  0.18172  Biso   1.000  C
  C50      1.0000 0.66916  0.24323  0.24266  Biso   1.000  C
  C51      1.0000 0.64284  0.32477  0.20553  Biso   1.000  C
  C52      1.0000 0.64101  0.20519  0.33267  Biso   1.000  C
  C53      1.0000 0.72891  0.18453  0.90262  Biso   1.000  C
  C54      1.0000 0.67252  0.24073  0.84521  Biso   1.000  C
  C55      1.0000 0.64448  0.32357  0.81978  Biso   1.000  C
  C56      1.0000 0.64407  0.20380  0.81635  Biso   1.000  C
  C57      1.0000 0.14816  0.20451  0.81958  Biso   1.000  C
  C58      1.0000 0.22158  0.67880  0.41097  Biso   1.000  C
  C59      1.0000 0.16407  0.73813  0.35002  Biso   1.000  C
  C60      1.0000 0.08253  0.76447  0.38715  Biso   1.000  C
  C61      1.0000 0.20212  0.76629  0.26002  Biso   1.000  C
  C62      1.0000 0.22278  0.67838  0.69006  Biso   1.000  C
  C63      1.0000 0.16657  0.73478  0.74748  Biso   1.000  C
  C64      1.0000 0.08372  0.76283  0.77290  Biso   1.000  C
  C65      1.0000 0.20350  0.76323  0.77634  Biso   1.000  C
  C66      1.0000 0.20279  0.25914  0.77311  Biso   1.000  C
  C67      1.0000 0.50288  0.39750  0.41097  Biso   1.000  C
  C68      1.0000 0.56222  0.33999  0.35002  Biso   1.000  C
  C69      1.0000 0.58854  0.25846  0.38715  Biso   1.000  C
  C70      1.0000 0.59037  0.37804  0.26002  Biso   1.000  C
  C71      1.0000 0.50247  0.39870  0.69006  Biso   1.000  C
  C72      1.0000 0.55886  0.34250  0.74748  Biso   1.000  C
  C73      1.0000 0.58690  0.25965  0.77290  Biso   1.000  C
  C74      1.0000 0.58731  0.37942  0.77634  Biso   1.000  C
  C75      1.0000 0.08322  0.37872  0.77311  Biso   1.000  C
  C76      1.0000 0.00980  0.90442  0.18172  Biso   1.000  C
  C77      1.0000 0.06731  0.84509  0.24266  Biso   1.000  C
  C78      1.0000 0.14885  0.81876  0.20553  Biso   1.000  C
  C79      1.0000 0.02926  0.81694  0.33267  Biso   1.000  C
  C80      1.0000 0.00860  0.90484  0.90262  Biso   1.000  C
  C81      1.0000 0.06481  0.84844  0.84521  Biso   1.000  C
  C82      1.0000 0.14766  0.82039  0.81978  Biso   1.000  C
  C83      1.0000 0.02788  0.81999  0.81635  Biso   1.000  C
  C84      1.0000 0.02859  0.32408  0.81958  Biso   1.000  C
  C85      1.0000 0.72678  0.90271  0.18838  Biso   1.000  C
  C86      1.0000 0.67018  0.84610  0.24185  Biso   1.000  C
  C87      1.0000 0.64334  0.81926  0.20452  Biso   1.000  C
  C88      1.0000 0.64091  0.81683  0.33468  Biso   1.000  C
  C89      1.0000 0.00567  0.18160  0.90787  Biso   1.000  C
  C90      1.0000 0.06642  0.24234  0.84531  Biso   1.000  C
  C91      1.0000 0.50460  0.68052  0.40431  Biso   1.000  C
  C92      1.0000 0.56120  0.73712  0.35083  Biso   1.000  C
  C93      1.0000 0.58804  0.76396  0.38816  Biso   1.000  C
  C94      1.0000 0.59047  0.76639  0.25800  Biso   1.000  C
  C95      1.0000 0.22571  0.40162  0.68482  Biso   1.000  C
  C96      1.0000 0.16496  0.34088  0.74738  Biso   1.000  C
  O27      1.0000 0.74877  0.09925  0.22561  Biso   1.000  O
  O28      1.0000 0.75120  0.22659  0.09827  Biso   1.000  O
  O29      1.0000 0.74849  0.09816  0.92815  Biso   1.000  O
  O30      1.0000 0.75071  0.22509  0.92532  Biso   1.000  O
  O31      1.0000 0.04845  0.09785  0.92764  Biso   1.000  O
  O32      1.0000 0.30805  0.65852  0.36707  Biso   1.000  O
  O33      1.0000 0.18071  0.65610  0.49441  Biso   1.000  O
  O34      1.0000 0.30915  0.65881  0.66454  Biso   1.000  O
  O35      1.0000 0.18222  0.65659  0.66736  Biso   1.000  O
  O36      1.0000 0.30945  0.35884  0.66504  Biso   1.000  O
  O37      1.0000 0.48261  0.48397  0.36707  Biso   1.000  O
  O38      1.0000 0.48018  0.35663  0.49441  Biso   1.000  O
  O39      1.0000 0.48289  0.48507  0.66454  Biso   1.000  O
  O40      1.0000 0.48067  0.35814  0.66736  Biso   1.000  O
  O41      1.0000 0.18293  0.48537  0.66504  Biso   1.000  O
  O42      1.0000 0.92333  0.92470  0.22561  Biso   1.000  O
  O43      1.0000 0.05067  0.92713  0.09827  Biso   1.000  O
  O44      1.0000 0.92223  0.92441  0.92815  Biso   1.000  O
  O45      1.0000 0.04916  0.92663  0.92532  Biso   1.000  O
  O46      1.0000 0.92193  0.22438  0.92764  Biso   1.000  O
  O47      1.0000 0.86784  0.04377  0.04429  Biso   1.000  O
  O48      1.0000 0.75019  0.92611  0.22460  Biso   1.000  O
  O49      1.0000 0.74858  0.92450  0.10301  Biso   1.000  O
  O50      1.0000 0.36354  0.53946  0.54840  Biso   1.000  O
  O51      1.0000 0.48119  0.65711  0.36808  Biso   1.000  O
