data_image0
_cell_length_a       18.0897
_cell_length_b       18.0897
_cell_length_c       18.0897
_cell_angle_alpha    60
_cell_angle_beta     60
_cell_angle_gamma    60

_symmetry_space_group_name_H-M    "P 1"
_symmetry_int_tables_number       1

loop_
  _symmetry_equiv_pos_as_xyz
  'x, y, z'

loop_
  _atom_site_label
  _atom_site_occupancy
  _atom_site_fract_x
  _atom_site_fract_y
  _atom_site_fract_z
  _atom_site_thermal_displace_type
  _atom_site_B_iso_or_equiv
  _atom_site_type_symbol
  C1       1.0000 0.38110  0.20630  0.20630  Biso   1.000  C
  C2       1.0000 0.20630  0.38110  0.20630  Biso   1.000  C
  C3       1.0000 0.20630  0.20630  0.38110  Biso   1.000  C
  C4       1.0000 0.20630  0.20630  0.20630  Biso   1.000  C
  C5       1.0000 0.79370  0.61890  0.79370  Biso   1.000  C
  C6       1.0000 0.61890  0.79370  0.79370  Biso   1.000  C
  C7       1.0000 0.79370  0.79370  0.61890  Biso   1.000  C
  C8       1.0000 0.79370  0.79370  0.79370  Biso   1.000  C
  C9       1.0000 0.35200  0.04240  0.56320  Biso   1.000  C
  C10      1.0000 0.04240  0.35200  0.04240  Biso   1.000  C
  C11      1.0000 0.56320  0.04240  0.35200  Biso   1.000  C
  C12      1.0000 0.04240  0.56320  0.04240  Biso   1.000  C
  C13      1.0000 0.35200  0.56320  0.04240  Biso   1.000  C
  C14      1.0000 0.04240  0.04240  0.56320  Biso   1.000  C
  C15      1.0000 0.56320  0.35200  0.04240  Biso   1.000  C
  C16      1.0000 0.04240  0.04240  0.35200  Biso   1.000  C
  C17      1.0000 0.35200  0.04240  0.04240  Biso   1.000  C
  C18      1.0000 0.04240  0.56320  0.35200  Biso   1.000  C
  C19      1.0000 0.56320  0.04240  0.04240  Biso   1.000  C
  C20      1.0000 0.04240  0.35200  0.56320  Biso   1.000  C
  C21      1.0000 0.95760  0.64800  0.43680  Biso   1.000  C
  C22      1.0000 0.64800  0.95760  0.95760  Biso   1.000  C
  C23      1.0000 0.95760  0.43680  0.64800  Biso   1.000  C
  C24      1.0000 0.43680  0.95760  0.95760  Biso   1.000  C
  C25      1.0000 0.43680  0.64800  0.95760  Biso   1.000  C
  C26      1.0000 0.95760  0.95760  0.43680  Biso   1.000  C
  C27      1.0000 0.64800  0.43680  0.95760  Biso   1.000  C
  C28      1.0000 0.95760  0.95760  0.64800  Biso   1.000  C
  C29      1.0000 0.95760  0.64800  0.95760  Biso   1.000  C
  C30      1.0000 0.43680  0.95760  0.64800  Biso   1.000  C
  C31      1.0000 0.95760  0.43680  0.95760  Biso   1.000  C
  C32      1.0000 0.64800  0.95760  0.43680  Biso   1.000  C
  C33      1.0000 0.41430  0.02590  0.53390  Biso   1.000  C
  C34      1.0000 0.02590  0.41430  0.02590  Biso   1.000  C
  C35      1.0000 0.53390  0.02590  0.41430  Biso   1.000  C
  C36      1.0000 0.02590  0.53390  0.02590  Biso   1.000  C
  C37      1.0000 0.41430  0.53390  0.02590  Biso   1.000  C
  C38      1.0000 0.02590  0.02590  0.53390  Biso   1.000  C
  C39      1.0000 0.53390  0.41430  0.02590  Biso   1.000  C
  C40      1.0000 0.02590  0.02590  0.41430  Biso   1.000  C
  C41      1.0000 0.41430  0.02590  0.02590  Biso   1.000  C
  C42      1.0000 0.02590  0.53390  0.41430  Biso   1.000  C
  C43      1.0000 0.53390  0.02590  0.02590  Biso   1.000  C
  C44      1.0000 0.02590  0.41430  0.53390  Biso   1.000  C
  C45      1.0000 0.97410  0.58570  0.46610  Biso   1.000  C
  C46      1.0000 0.58570  0.97410  0.97410  Biso   1.000  C
  C47      1.0000 0.97410  0.46610  0.58570  Biso   1.000  C
  C48      1.0000 0.46610  0.97410  0.97410  Biso   1.000  C
  C49      1.0000 0.46610  0.58570  0.97410  Biso   1.000  C
  C50      1.0000 0.97410  0.97410  0.46610  Biso   1.000  C
  C51      1.0000 0.58570  0.46610  0.97410  Biso   1.000  C
  C52      1.0000 0.97410  0.97410  0.58570  Biso   1.000  C
  C53      1.0000 0.97410  0.58570  0.97410  Biso   1.000  C
  C54      1.0000 0.46610  0.97410  0.58570  Biso   1.000  C
  C55      1.0000 0.97410  0.46610  0.97410  Biso   1.000  C
  C56      1.0000 0.58570  0.97410  0.46610  Biso   1.000  C
  C57      1.0000 0.38580  0.11420  0.38580  Biso   1.000  C
  C58      1.0000 0.44340  0.05660  0.44340  Biso   1.000  C
  C59      1.0000 0.11420  0.38580  0.11420  Biso   1.000  C
  C60      1.0000 0.05660  0.44340  0.05660  Biso   1.000  C
  C61      1.0000 0.38580  0.38580  0.11420  Biso   1.000  C
  C62      1.0000 0.44340  0.44340  0.05660  Biso   1.000  C
  C63      1.0000 0.11420  0.11420  0.38580  Biso   1.000  C
  C64      1.0000 0.05660  0.05660  0.44340  Biso   1.000  C
  C65      1.0000 0.38580  0.11420  0.11420  Biso   1.000  C
  C66      1.0000 0.44340  0.05660  0.05660  Biso   1.000  C
  C67      1.0000 0.11420  0.38580  0.38580  Biso   1.000  C
  C68      1.0000 0.05660  0.44340  0.44340  Biso   1.000  C
  C69      1.0000 0.88580  0.61420  0.61420  Biso   1.000  C
  C70      1.0000 0.94340  0.55660  0.55660  Biso   1.000  C
  C71      1.0000 0.61420  0.88580  0.88580  Biso   1.000  C
  C72      1.0000 0.55660  0.94340  0.94340  Biso   1.000  C
  C73      1.0000 0.61420  0.61420  0.88580  Biso   1.000  C
  C74      1.0000 0.55660  0.55660  0.94340  Biso   1.000  C
  C75      1.0000 0.88580  0.88580  0.61420  Biso   1.000  C
  C76      1.0000 0.94340  0.94340  0.55660  Biso   1.000  C
  C77      1.0000 0.88580  0.61420  0.88580  Biso   1.000  C
  C78      1.0000 0.94340  0.55660  0.94340  Biso   1.000  C
  C79      1.0000 0.61420  0.88580  0.61420  Biso   1.000  C
  C80      1.0000 0.55660  0.94340  0.55660  Biso   1.000  C
  C81      1.0000 0.25000  0.25000  0.25000  Biso   1.000  C
  C82      1.0000 0.75000  0.75000  0.75000  Biso   1.000  C
  C83      1.0000 0.42610  0.13570  0.30250  Biso   1.000  C
  C84      1.0000 0.13570  0.42610  0.13570  Biso   1.000  C
  C85      1.0000 0.30250  0.13570  0.42610  Biso   1.000  C
  C86      1.0000 0.13570  0.30250  0.13570  Biso   1.000  C
  C87      1.0000 0.42610  0.30250  0.13570  Biso   1.000  C
  C88      1.0000 0.13570  0.13570  0.30250  Biso   1.000  C
  C89      1.0000 0.30250  0.42610  0.13570  Biso   1.000  C
  C90      1.0000 0.13570  0.13570  0.42610  Biso   1.000  C
  C91      1.0000 0.42610  0.13570  0.13570  Biso   1.000  C
  C92      1.0000 0.13570  0.30250  0.42610  Biso   1.000  C
  C93      1.0000 0.30250  0.13570  0.13570  Biso   1.000  C
  C94      1.0000 0.13570  0.42610  0.30250  Biso   1.000  C
  C95      1.0000 0.86430  0.57390  0.69750  Biso   1.000  C
  C96      1.0000 0.57390  0.86430  0.86430  Biso   1.000  C
  C97      1.0000 0.86430  0.69750  0.57390  Biso   1.000  C
  C98      1.0000 0.69750  0.86430  0.86430  Biso   1.000  C
  C99      1.0000 0.69750  0.57390  0.86430  Biso   1.000  C
  C100     1.0000 0.86430  0.86430  0.69750  Biso   1.000  C
  C101     1.0000 0.57390  0.69750  0.86430  Biso   1.000  C
  C102     1.0000 0.86430  0.86430  0.57390  Biso   1.000  C
  C103     1.0000 0.86430  0.57390  0.86430  Biso   1.000  C
  C104     1.0000 0.69750  0.86430  0.57390  Biso   1.000  C
  C105     1.0000 0.86430  0.69750  0.86430  Biso   1.000  C
  C106     1.0000 0.57390  0.86430  0.69750  Biso   1.000  C
  O1       1.0000 0.01878  0.95748  0.00000  Biso   1.000  O
  O2       1.0000 0.01878  0.13477  0.00000  Biso   1.000  O
  O3       1.0000 0.84149  0.13477  0.00000  Biso   1.000  O
  O4       1.0000 0.01878  0.13477  0.82271  Biso   1.000  O
  O5       1.0000 0.44802  0.54016  0.40539  Biso   1.000  O
  O6       1.0000 0.44802  0.71745  0.40539  Biso   1.000  O
  O7       1.0000 0.62531  0.54016  0.40539  Biso   1.000  O
  O8       1.0000 0.44802  0.54016  0.58268  Biso   1.000  O
  O9       1.0000 0.88450  0.77381  0.15897  Biso   1.000  O
  O10      1.0000 0.17775  0.29374  0.86572  Biso   1.000  O
  O11      1.0000 0.65783  0.00049  0.15897  Biso   1.000  O
  O12      1.0000 0.17775  0.29374  0.63905  Biso   1.000  O
  O13      1.0000 0.65783  0.29374  0.86572  Biso   1.000  O
  O14      1.0000 0.17775  0.00049  0.15897  Biso   1.000  O
  O15      1.0000 0.88450  0.29374  0.63905  Biso   1.000  O
  O16      1.0000 0.17775  0.77381  0.15897  Biso   1.000  O
  O17      1.0000 0.17775  0.00049  0.63905  Biso   1.000  O
  O18      1.0000 0.88450  0.29374  0.15897  Biso   1.000  O
  O19      1.0000 0.17775  0.77381  0.86572  Biso   1.000  O
  O20      1.0000 0.65783  0.29374  0.15897  Biso   1.000  O
  O21      1.0000 0.58230  0.38119  0.24642  Biso   1.000  O
  O22      1.0000 0.28905  0.90111  0.53968  Biso   1.000  O
  O23      1.0000 0.80898  0.38119  0.24642  Biso   1.000  O
  O24      1.0000 0.28905  0.67444  0.76635  Biso   1.000  O
  O25      1.0000 0.80898  0.38119  0.53968  Biso   1.000  O
  O26      1.0000 0.28905  0.90111  0.24642  Biso   1.000  O
  O27      1.0000 0.58230  0.38119  0.76635  Biso   1.000  O
  O28      1.0000 0.28905  0.67444  0.24642  Biso   1.000  O
  O29      1.0000 0.28905  0.38119  0.76635  Biso   1.000  O
  O30      1.0000 0.58230  0.90111  0.24642  Biso   1.000  O
  O31      1.0000 0.28905  0.38119  0.53968  Biso   1.000  O
  O32      1.0000 0.80898  0.67444  0.24642  Biso   1.000  O
  O33      1.0000 0.81447  0.79729  0.18225  Biso   1.000  O
  O34      1.0000 0.20103  0.31702  0.79569  Biso   1.000  O
  O35      1.0000 0.68130  0.93046  0.18225  Biso   1.000  O
  O36      1.0000 0.20103  0.31702  0.66252  Biso   1.000  O
  O37      1.0000 0.68130  0.31702  0.79569  Biso   1.000  O
  O38      1.0000 0.20103  0.93046  0.18225  Biso   1.000  O
  O39      1.0000 0.81447  0.31702  0.66252  Biso   1.000  O
  O40      1.0000 0.20103  0.79729  0.18225  Biso   1.000  O
  O41      1.0000 0.20103  0.93046  0.66252  Biso   1.000  O
  O42      1.0000 0.81447  0.31702  0.18225  Biso   1.000  O
  O43      1.0000 0.20103  0.79729  0.79569  Biso   1.000  O
  O44      1.0000 0.68130  0.31702  0.18225  Biso   1.000  O
  O45      1.0000 0.65233  0.35791  0.22315  Biso   1.000  O
  O46      1.0000 0.26578  0.87764  0.60970  Biso   1.000  O
  O47      1.0000 0.78550  0.35791  0.22315  Biso   1.000  O
  O48      1.0000 0.26578  0.74447  0.74287  Biso   1.000  O
  O49      1.0000 0.78550  0.35791  0.60970  Biso   1.000  O
  O50      1.0000 0.26578  0.87764  0.22315  Biso   1.000  O
  O51      1.0000 0.65233  0.35791  0.74287  Biso   1.000  O
  O52      1.0000 0.26578  0.74447  0.22315  Biso   1.000  O
  O53      1.0000 0.26578  0.35791  0.74287  Biso   1.000  O
  O54      1.0000 0.65233  0.87764  0.22315  Biso   1.000  O
  O55      1.0000 0.26578  0.35791  0.60970  Biso   1.000  O
  O56      1.0000 0.78550  0.74447  0.22315  Biso   1.000  O
  O57      1.0000 0.83127  0.94726  0.09886  Biso   1.000  O
  O58      1.0000 0.77713  0.89312  0.15300  Biso   1.000  O
  O59      1.0000 0.11765  0.23363  0.81249  Biso   1.000  O
  O60      1.0000 0.17178  0.28777  0.75835  Biso   1.000  O
  O61      1.0000 0.83127  0.23363  0.81249  Biso   1.000  O
  O62      1.0000 0.77713  0.28777  0.75835  Biso   1.000  O
  O63      1.0000 0.11765  0.94726  0.09886  Biso   1.000  O
  O64      1.0000 0.17178  0.89312  0.15300  Biso   1.000  O
  O65      1.0000 0.11765  0.94726  0.81249  Biso   1.000  O
  O66      1.0000 0.17178  0.89312  0.75835  Biso   1.000  O
  O67      1.0000 0.83127  0.23363  0.09886  Biso   1.000  O
  O68      1.0000 0.77713  0.28777  0.15300  Biso   1.000  O
  O69      1.0000 0.63553  0.44130  0.30653  Biso   1.000  O
  O70      1.0000 0.68967  0.38716  0.25239  Biso   1.000  O
  O71      1.0000 0.34916  0.72767  0.59290  Biso   1.000  O
  O72      1.0000 0.29502  0.78181  0.64704  Biso   1.000  O
  O73      1.0000 0.63553  0.44130  0.59290  Biso   1.000  O
  O74      1.0000 0.68967  0.38716  0.64704  Biso   1.000  O
  O75      1.0000 0.34916  0.72767  0.30653  Biso   1.000  O
  O76      1.0000 0.29502  0.78181  0.25239  Biso   1.000  O
  O77      1.0000 0.34916  0.44130  0.59290  Biso   1.000  O
  O78      1.0000 0.29502  0.38716  0.64704  Biso   1.000  O
  O79      1.0000 0.63553  0.72767  0.30653  Biso   1.000  O
  O80      1.0000 0.68967  0.78181  0.25239  Biso   1.000  O
  O81      1.0000 0.97446  0.09045  0.95568  Biso   1.000  O
  O82      1.0000 0.49234  0.58448  0.44972  Biso   1.000  O
  O83      1.0000 0.91890  0.91103  0.07316  Biso   1.000  O
  O84      1.0000 0.09194  0.20793  0.90012  Biso   1.000  O
  O85      1.0000 0.79504  0.03489  0.07316  Biso   1.000  O
  O86      1.0000 0.09194  0.20793  0.77626  Biso   1.000  O
  O87      1.0000 0.79504  0.20793  0.90012  Biso   1.000  O
  O88      1.0000 0.09194  0.03489  0.07316  Biso   1.000  O
  O89      1.0000 0.91890  0.20793  0.77626  Biso   1.000  O
  O90      1.0000 0.09194  0.91103  0.07316  Biso   1.000  O
  O91      1.0000 0.09194  0.03489  0.77626  Biso   1.000  O
  O92      1.0000 0.91890  0.20793  0.07316  Biso   1.000  O
  O93      1.0000 0.09194  0.91103  0.90012  Biso   1.000  O
  O94      1.0000 0.79504  0.20793  0.07316  Biso   1.000  O
  O95      1.0000 0.54790  0.46700  0.33223  Biso   1.000  O
  O96      1.0000 0.37486  0.76390  0.50527  Biso   1.000  O
  O97      1.0000 0.67176  0.46700  0.33223  Biso   1.000  O
  O98      1.0000 0.37486  0.64004  0.62913  Biso   1.000  O
  O99      1.0000 0.67176  0.46700  0.50527  Biso   1.000  O
  O100     1.0000 0.37486  0.76390  0.33223  Biso   1.000  O
  O101     1.0000 0.54790  0.46700  0.62913  Biso   1.000  O
  O102     1.0000 0.37486  0.64004  0.33223  Biso   1.000  O
  O103     1.0000 0.37486  0.46700  0.62913  Biso   1.000  O
  O104     1.0000 0.54790  0.76390  0.33223  Biso   1.000  O
  O105     1.0000 0.37486  0.46700  0.50527  Biso   1.000  O
