data_image0
_cell_length_a       18.0897
_cell_length_b       18.0897
_cell_length_c       18.0897
_cell_angle_alpha    60
_cell_angle_beta     60
_cell_angle_gamma    60

_symmetry_space_group_name_H-M    "P 1"
_symmetry_int_tables_number       1

loop_
  _symmetry_equiv_pos_as_xyz
  'x, y, z'

loop_
  _atom_site_label
  _atom_site_occupancy
  _atom_site_fract_x
  _atom_site_fract_y
  _atom_site_fract_z
  _atom_site_thermal_displace_type
  _atom_site_B_iso_or_equiv
  _atom_site_type_symbol
  C1       1.0000 0.38110  0.20630  0.20630  Biso   1.000  C
  C2       1.0000 0.20630  0.38110  0.20630  Biso   1.000  C
  C3       1.0000 0.20630  0.20630  0.38110  Biso   1.000  C
  C4       1.0000 0.20630  0.20630  0.20630  Biso   1.000  C
  C5       1.0000 0.79370  0.61890  0.79370  Biso   1.000  C
  C6       1.0000 0.61890  0.79370  0.79370  Biso   1.000  C
  C7       1.0000 0.79370  0.79370  0.61890  Biso   1.000  C
  C8       1.0000 0.79370  0.79370  0.79370  Biso   1.000  C
  C9       1.0000 0.35200  0.04240  0.56320  Biso   1.000  C
  C10      1.0000 0.04240  0.35200  0.04240  Biso   1.000  C
  C11      1.0000 0.56320  0.04240  0.35200  Biso   1.000  C
  C12      1.0000 0.04240  0.56320  0.04240  Biso   1.000  C
  C13      1.0000 0.35200  0.56320  0.04240  Biso   1.000  C
  C14      1.0000 0.04240  0.04240  0.56320  Biso   1.000  C
  C15      1.0000 0.56320  0.35200  0.04240  Biso   1.000  C
  C16      1.0000 0.04240  0.04240  0.35200  Biso   1.000  C
  C17      1.0000 0.35200  0.04240  0.04240  Biso   1.000  C
  C18      1.0000 0.04240  0.56320  0.35200  Biso   1.000  C
  C19      1.0000 0.56320  0.04240  0.04240  Biso   1.000  C
  C20      1.0000 0.04240  0.35200  0.56320  Biso   1.000  C
  C21      1.0000 0.95760  0.64800  0.43680  Biso   1.000  C
  C22      1.0000 0.64800  0.95760  0.95760  Biso   1.000  C
  C23      1.0000 0.95760  0.43680  0.64800  Biso   1.000  C
  C24      1.0000 0.43680  0.95760  0.95760  Biso   1.000  C
  C25      1.0000 0.43680  0.64800  0.95760  Biso   1.000  C
  C26      1.0000 0.95760  0.95760  0.43680  Biso   1.000  C
  C27      1.0000 0.64800  0.43680  0.95760  Biso   1.000  C
  C28      1.0000 0.95760  0.95760  0.64800  Biso   1.000  C
  C29      1.0000 0.95760  0.64800  0.95760  Biso   1.000  C
  C30      1.0000 0.43680  0.95760  0.64800  Biso   1.000  C
  C31      1.0000 0.95760  0.43680  0.95760  Biso   1.000  C
  C32      1.0000 0.64800  0.95760  0.43680  Biso   1.000  C
  C33      1.0000 0.41430  0.02590  0.53390  Biso   1.000  C
  C34      1.0000 0.02590  0.41430  0.02590  Biso   1.000  C
  C35      1.0000 0.53390  0.02590  0.41430  Biso   1.000  C
  C36      1.0000 0.02590  0.53390  0.02590  Biso   1.000  C
  C37      1.0000 0.41430  0.53390  0.02590  Biso   1.000  C
  C38      1.0000 0.02590  0.02590  0.53390  Biso   1.000  C
  C39      1.0000 0.53390  0.41430  0.02590  Biso   1.000  C
  C40      1.0000 0.02590  0.02590  0.41430  Biso   1.000  C
  C41      1.0000 0.41430  0.02590  0.02590  Biso   1.000  C
  C42      1.0000 0.02590  0.53390  0.41430  Biso   1.000  C
  C43      1.0000 0.53390  0.02590  0.02590  Biso   1.000  C
  C44      1.0000 0.02590  0.41430  0.53390  Biso   1.000  C
  C45      1.0000 0.97410  0.58570  0.46610  Biso   1.000  C
  C46      1.0000 0.58570  0.97410  0.97410  Biso   1.000  C
  C47      1.0000 0.97410  0.46610  0.58570  Biso   1.000  C
  C48      1.0000 0.46610  0.97410  0.97410  Biso   1.000  C
  C49      1.0000 0.46610  0.58570  0.97410  Biso   1.000  C
  C50      1.0000 0.97410  0.97410  0.46610  Biso   1.000  C
  C51      1.0000 0.58570  0.46610  0.97410  Biso   1.000  C
  C52      1.0000 0.97410  0.97410  0.58570  Biso   1.000  C
  C53      1.0000 0.97410  0.58570  0.97410  Biso   1.000  C
  C54      1.0000 0.46610  0.97410  0.58570  Biso   1.000  C
  C55      1.0000 0.97410  0.46610  0.97410  Biso   1.000  C
  C56      1.0000 0.58570  0.97410  0.46610  Biso   1.000  C
  C57      1.0000 0.38580  0.11420  0.38580  Biso   1.000  C
  C58      1.0000 0.44340  0.05660  0.44340  Biso   1.000  C
  C59      1.0000 0.11420  0.38580  0.11420  Biso   1.000  C
  C60      1.0000 0.05660  0.44340  0.05660  Biso   1.000  C
  C61      1.0000 0.38580  0.38580  0.11420  Biso   1.000  C
  C62      1.0000 0.44340  0.44340  0.05660  Biso   1.000  C
  C63      1.0000 0.11420  0.11420  0.38580  Biso   1.000  C
  C64      1.0000 0.05660  0.05660  0.44340  Biso   1.000  C
  C65      1.0000 0.38580  0.11420  0.11420  Biso   1.000  C
  C66      1.0000 0.44340  0.05660  0.05660  Biso   1.000  C
  C67      1.0000 0.11420  0.38580  0.38580  Biso   1.000  C
  C68      1.0000 0.05660  0.44340  0.44340  Biso   1.000  C
  C69      1.0000 0.88580  0.61420  0.61420  Biso   1.000  C
  C70      1.0000 0.94340  0.55660  0.55660  Biso   1.000  C
  C71      1.0000 0.61420  0.88580  0.88580  Biso   1.000  C
  C72      1.0000 0.55660  0.94340  0.94340  Biso   1.000  C
  C73      1.0000 0.61420  0.61420  0.88580  Biso   1.000  C
  C74      1.0000 0.55660  0.55660  0.94340  Biso   1.000  C
  C75      1.0000 0.88580  0.88580  0.61420  Biso   1.000  C
  C76      1.0000 0.94340  0.94340  0.55660  Biso   1.000  C
  C77      1.0000 0.88580  0.61420  0.88580  Biso   1.000  C
  C78      1.0000 0.94340  0.55660  0.94340  Biso   1.000  C
  C79      1.0000 0.61420  0.88580  0.61420  Biso   1.000  C
  C80      1.0000 0.55660  0.94340  0.55660  Biso   1.000  C
  C81      1.0000 0.25000  0.25000  0.25000  Biso   1.000  C
  C82      1.0000 0.75000  0.75000  0.75000  Biso   1.000  C
  C83      1.0000 0.42610  0.13570  0.30250  Biso   1.000  C
  C84      1.0000 0.13570  0.42610  0.13570  Biso   1.000  C
  C85      1.0000 0.30250  0.13570  0.42610  Biso   1.000  C
  C86      1.0000 0.13570  0.30250  0.13570  Biso   1.000  C
  C87      1.0000 0.42610  0.30250  0.13570  Biso   1.000  C
  C88      1.0000 0.13570  0.13570  0.30250  Biso   1.000  C
  C89      1.0000 0.30250  0.42610  0.13570  Biso   1.000  C
  C90      1.0000 0.13570  0.13570  0.42610  Biso   1.000  C
  C91      1.0000 0.42610  0.13570  0.13570  Biso   1.000  C
  C92      1.0000 0.13570  0.30250  0.42610  Biso   1.000  C
  C93      1.0000 0.30250  0.13570  0.13570  Biso   1.000  C
  C94      1.0000 0.13570  0.42610  0.30250  Biso   1.000  C
  C95      1.0000 0.86430  0.57390  0.69750  Biso   1.000  C
  C96      1.0000 0.57390  0.86430  0.86430  Biso   1.000  C
  C97      1.0000 0.86430  0.69750  0.57390  Biso   1.000  C
  C98      1.0000 0.69750  0.86430  0.86430  Biso   1.000  C
  C99      1.0000 0.69750  0.57390  0.86430  Biso   1.000  C
  C100     1.0000 0.86430  0.86430  0.69750  Biso   1.000  C
  C101     1.0000 0.57390  0.69750  0.86430  Biso   1.000  C
  C102     1.0000 0.86430  0.86430  0.57390  Biso   1.000  C
  C103     1.0000 0.86430  0.57390  0.86430  Biso   1.000  C
  C104     1.0000 0.69750  0.86430  0.57390  Biso   1.000  C
  C105     1.0000 0.86430  0.69750  0.86430  Biso   1.000  C
  C106     1.0000 0.57390  0.86430  0.69750  Biso   1.000  C
  O1       1.0000 0.99504  0.00000  0.00000  Biso   1.000  O
  O2       1.0000 0.99505  0.99999  0.17573  Biso   1.000  O
  O3       1.0000 0.81932  1.00000  0.17572  Biso   1.000  O
  O4       1.0000 0.99505  0.82427  0.17573  Biso   1.000  O
  O5       1.0000 0.41119  0.41613  0.76759  Biso   1.000  O
  O6       1.0000 0.41118  0.41613  0.59187  Biso   1.000  O
  O7       1.0000 0.41119  0.59186  0.59187  Biso   1.000  O
  O8       1.0000 0.58692  0.41613  0.59186  Biso   1.000  O
  O9       1.0000 0.15867  0.16361  0.82379  Biso   1.000  O
  O10      1.0000 0.15867  0.16361  0.03271  Biso   1.000  O
  O11      1.0000 0.64311  0.85698  0.33934  Biso   1.000  O
  O12      1.0000 0.85204  0.64805  0.33934  Biso   1.000  O
  O13      1.0000 0.15867  0.64805  0.03271  Biso   1.000  O
  O14      1.0000 0.15867  0.85698  0.82379  Biso   1.000  O
  O15      1.0000 0.64311  0.16361  0.33934  Biso   1.000  O
  O16      1.0000 0.85204  0.16361  0.33934  Biso   1.000  O
  O17      1.0000 0.15867  0.85698  0.33934  Biso   1.000  O
  O18      1.0000 0.15867  0.64805  0.33934  Biso   1.000  O
  O19      1.0000 0.64311  0.16361  0.03271  Biso   1.000  O
  O20      1.0000 0.85204  0.16361  0.82379  Biso   1.000  O
  O21      1.0000 0.24758  0.25251  0.94380  Biso   1.000  O
  O22      1.0000 0.24758  0.25251  0.73488  Biso   1.000  O
  O23      1.0000 0.55421  0.76807  0.42825  Biso   1.000  O
  O24      1.0000 0.76313  0.55915  0.42825  Biso   1.000  O
  O25      1.0000 0.76313  0.25251  0.73488  Biso   1.000  O
  O26      1.0000 0.55421  0.25251  0.94380  Biso   1.000  O
  O27      1.0000 0.24758  0.76807  0.42825  Biso   1.000  O
  O28      1.0000 0.24758  0.55915  0.42825  Biso   1.000  O
  O29      1.0000 0.55421  0.25251  0.42825  Biso   1.000  O
  O30      1.0000 0.76313  0.25251  0.42825  Biso   1.000  O
  O31      1.0000 0.24758  0.76807  0.73488  Biso   1.000  O
  O32      1.0000 0.24758  0.55915  0.94380  Biso   1.000  O
  O33      1.0000 0.17651  0.18145  0.85076  Biso   1.000  O
  O34      1.0000 0.17651  0.18145  0.97005  Biso   1.000  O
  O35      1.0000 0.67009  0.79432  0.35718  Biso   1.000  O
  O36      1.0000 0.78938  0.67503  0.35718  Biso   1.000  O
  O37      1.0000 0.17651  0.67503  0.97005  Biso   1.000  O
  O38      1.0000 0.17651  0.79432  0.85076  Biso   1.000  O
  O39      1.0000 0.67009  0.18145  0.35718  Biso   1.000  O
  O40      1.0000 0.78938  0.18145  0.35718  Biso   1.000  O
  O41      1.0000 0.17651  0.79432  0.35718  Biso   1.000  O
  O42      1.0000 0.17651  0.67503  0.35718  Biso   1.000  O
  O43      1.0000 0.67009  0.18145  0.97005  Biso   1.000  O
  O44      1.0000 0.78938  0.18145  0.85076  Biso   1.000  O
  O45      1.0000 0.22973  0.23467  0.91683  Biso   1.000  O
  O46      1.0000 0.22973  0.23467  0.79754  Biso   1.000  O
  O47      1.0000 0.61687  0.74110  0.41041  Biso   1.000  O
  O48      1.0000 0.73616  0.62180  0.41041  Biso   1.000  O
  O49      1.0000 0.73616  0.23467  0.79754  Biso   1.000  O
  O50      1.0000 0.61687  0.23467  0.91683  Biso   1.000  O
  O51      1.0000 0.22973  0.74110  0.41041  Biso   1.000  O
  O52      1.0000 0.22973  0.62180  0.41041  Biso   1.000  O
  O53      1.0000 0.61687  0.23467  0.41041  Biso   1.000  O
  O54      1.0000 0.73616  0.23467  0.41041  Biso   1.000  O
  O55      1.0000 0.22973  0.74110  0.79754  Biso   1.000  O
  O56      1.0000 0.22973  0.62180  0.91683  Biso   1.000  O
  O57      1.0000 0.09083  0.09577  0.99209  Biso   1.000  O
  O58      1.0000 0.14909  0.15403  0.93382  Biso   1.000  O
  O59      1.0000 0.81141  0.81635  0.27150  Biso   1.000  O
  O60      1.0000 0.75315  0.75809  0.32977  Biso   1.000  O
  O61      1.0000 0.09083  0.81635  0.99209  Biso   1.000  O
  O62      1.0000 0.14909  0.75809  0.93382  Biso   1.000  O
  O63      1.0000 0.81141  0.09577  0.27150  Biso   1.000  O
  O64      1.0000 0.75315  0.15403  0.32977  Biso   1.000  O
  O65      1.0000 0.09083  0.81635  0.27150  Biso   1.000  O
  O66      1.0000 0.14909  0.75809  0.32977  Biso   1.000  O
  O67      1.0000 0.81141  0.09577  0.99209  Biso   1.000  O
  O68      1.0000 0.75315  0.15403  0.93382  Biso   1.000  O
  O69      1.0000 0.31541  0.32035  0.77550  Biso   1.000  O
  O70      1.0000 0.25715  0.26209  0.83377  Biso   1.000  O
  O71      1.0000 0.59483  0.59977  0.49609  Biso   1.000  O
  O72      1.0000 0.65309  0.65803  0.43782  Biso   1.000  O
  O73      1.0000 0.59483  0.32035  0.77550  Biso   1.000  O
  O74      1.0000 0.65309  0.26209  0.83377  Biso   1.000  O
  O75      1.0000 0.31541  0.59977  0.49609  Biso   1.000  O
  O76      1.0000 0.25715  0.65803  0.43782  Biso   1.000  O
  O77      1.0000 0.59483  0.32035  0.49609  Biso   1.000  O
  O78      1.0000 0.65309  0.26209  0.43782  Biso   1.000  O
  O79      1.0000 0.31541  0.59977  0.77550  Biso   1.000  O
  O80      1.0000 0.25715  0.65803  0.83377  Biso   1.000  O
  O81      1.0000 0.95112  0.95606  0.13180  Biso   1.000  O
  O82      1.0000 0.45512  0.46006  0.63580  Biso   1.000  O
  O83      1.0000 0.06809  0.07303  0.95378  Biso   1.000  O
  O84      1.0000 0.06809  0.07303  0.07587  Biso   1.000  O
  O85      1.0000 0.77311  0.90014  0.24876  Biso   1.000  O
  O86      1.0000 0.89520  0.77805  0.24876  Biso   1.000  O
  O87      1.0000 0.06809  0.77805  0.07587  Biso   1.000  O
  O88      1.0000 0.06809  0.90014  0.95378  Biso   1.000  O
  O89      1.0000 0.77311  0.07303  0.24876  Biso   1.000  O
  O90      1.0000 0.89520  0.07303  0.24876  Biso   1.000  O
  O91      1.0000 0.06809  0.90014  0.24876  Biso   1.000  O
  O92      1.0000 0.06809  0.77805  0.24876  Biso   1.000  O
  O93      1.0000 0.77311  0.07303  0.07587  Biso   1.000  O
  O94      1.0000 0.89520  0.07303  0.95378  Biso   1.000  O
  O95      1.0000 0.33815  0.34309  0.81381  Biso   1.000  O
  O96      1.0000 0.33815  0.34309  0.69172  Biso   1.000  O
  O97      1.0000 0.51105  0.63807  0.51883  Biso   1.000  O
  O98      1.0000 0.63314  0.51598  0.51883  Biso   1.000  O
  O99      1.0000 0.63313  0.34309  0.69172  Biso   1.000  O
  O100     1.0000 0.51105  0.34309  0.81381  Biso   1.000  O
  O101     1.0000 0.33815  0.63807  0.51883  Biso   1.000  O
  O102     1.0000 0.33815  0.51598  0.51883  Biso   1.000  O
  O103     1.0000 0.51105  0.34309  0.51883  Biso   1.000  O
  O104     1.0000 0.63314  0.34309  0.51883  Biso   1.000  O
  O105     1.0000 0.33815  0.63807  0.69172  Biso   1.000  O
