data_image0
_cell_length_a       18.0897
_cell_length_b       18.0897
_cell_length_c       18.0897
_cell_angle_alpha    60
_cell_angle_beta     60
_cell_angle_gamma    60

_symmetry_space_group_name_H-M    "P 1"
_symmetry_int_tables_number       1

loop_
  _symmetry_equiv_pos_as_xyz
  'x, y, z'

loop_
  _atom_site_label
  _atom_site_occupancy
  _atom_site_fract_x
  _atom_site_fract_y
  _atom_site_fract_z
  _atom_site_thermal_displace_type
  _atom_site_B_iso_or_equiv
  _atom_site_type_symbol
  C1       1.0000 0.38110  0.20630  0.20630  Biso   1.000  C
  C2       1.0000 0.20630  0.38110  0.20630  Biso   1.000  C
  C3       1.0000 0.20630  0.20630  0.38110  Biso   1.000  C
  C4       1.0000 0.20630  0.20630  0.20630  Biso   1.000  C
  C5       1.0000 0.79370  0.61890  0.79370  Biso   1.000  C
  C6       1.0000 0.61890  0.79370  0.79370  Biso   1.000  C
  C7       1.0000 0.79370  0.79370  0.61890  Biso   1.000  C
  C8       1.0000 0.79370  0.79370  0.79370  Biso   1.000  C
  C9       1.0000 0.35200  0.04240  0.56320  Biso   1.000  C
  C10      1.0000 0.04240  0.35200  0.04240  Biso   1.000  C
  C11      1.0000 0.56320  0.04240  0.35200  Biso   1.000  C
  C12      1.0000 0.04240  0.56320  0.04240  Biso   1.000  C
  C13      1.0000 0.35200  0.56320  0.04240  Biso   1.000  C
  C14      1.0000 0.04240  0.04240  0.56320  Biso   1.000  C
  C15      1.0000 0.56320  0.35200  0.04240  Biso   1.000  C
  C16      1.0000 0.04240  0.04240  0.35200  Biso   1.000  C
  C17      1.0000 0.35200  0.04240  0.04240  Biso   1.000  C
  C18      1.0000 0.04240  0.56320  0.35200  Biso   1.000  C
  C19      1.0000 0.56320  0.04240  0.04240  Biso   1.000  C
  C20      1.0000 0.04240  0.35200  0.56320  Biso   1.000  C
  C21      1.0000 0.95760  0.64800  0.43680  Biso   1.000  C
  C22      1.0000 0.64800  0.95760  0.95760  Biso   1.000  C
  C23      1.0000 0.95760  0.43680  0.64800  Biso   1.000  C
  C24      1.0000 0.43680  0.95760  0.95760  Biso   1.000  C
  C25      1.0000 0.43680  0.64800  0.95760  Biso   1.000  C
  C26      1.0000 0.95760  0.95760  0.43680  Biso   1.000  C
  C27      1.0000 0.64800  0.43680  0.95760  Biso   1.000  C
  C28      1.0000 0.95760  0.95760  0.64800  Biso   1.000  C
  C29      1.0000 0.95760  0.64800  0.95760  Biso   1.000  C
  C30      1.0000 0.43680  0.95760  0.64800  Biso   1.000  C
  C31      1.0000 0.95760  0.43680  0.95760  Biso   1.000  C
  C32      1.0000 0.64800  0.95760  0.43680  Biso   1.000  C
  C33      1.0000 0.41430  0.02590  0.53390  Biso   1.000  C
  C34      1.0000 0.02590  0.41430  0.02590  Biso   1.000  C
  C35      1.0000 0.53390  0.02590  0.41430  Biso   1.000  C
  C36      1.0000 0.02590  0.53390  0.02590  Biso   1.000  C
  C37      1.0000 0.41430  0.53390  0.02590  Biso   1.000  C
  C38      1.0000 0.02590  0.02590  0.53390  Biso   1.000  C
  C39      1.0000 0.53390  0.41430  0.02590  Biso   1.000  C
  C40      1.0000 0.02590  0.02590  0.41430  Biso   1.000  C
  C41      1.0000 0.41430  0.02590  0.02590  Biso   1.000  C
  C42      1.0000 0.02590  0.53390  0.41430  Biso   1.000  C
  C43      1.0000 0.53390  0.02590  0.02590  Biso   1.000  C
  C44      1.0000 0.02590  0.41430  0.53390  Biso   1.000  C
  C45      1.0000 0.97410  0.58570  0.46610  Biso   1.000  C
  C46      1.0000 0.58570  0.97410  0.97410  Biso   1.000  C
  C47      1.0000 0.97410  0.46610  0.58570  Biso   1.000  C
  C48      1.0000 0.46610  0.97410  0.97410  Biso   1.000  C
  C49      1.0000 0.46610  0.58570  0.97410  Biso   1.000  C
  C50      1.0000 0.97410  0.97410  0.46610  Biso   1.000  C
  C51      1.0000 0.58570  0.46610  0.97410  Biso   1.000  C
  C52      1.0000 0.97410  0.97410  0.58570  Biso   1.000  C
  C53      1.0000 0.97410  0.58570  0.97410  Biso   1.000  C
  C54      1.0000 0.46610  0.97410  0.58570  Biso   1.000  C
  C55      1.0000 0.97410  0.46610  0.97410  Biso   1.000  C
  C56      1.0000 0.58570  0.97410  0.46610  Biso   1.000  C
  C57      1.0000 0.38580  0.11420  0.38580  Biso   1.000  C
  C58      1.0000 0.44340  0.05660  0.44340  Biso   1.000  C
  C59      1.0000 0.11420  0.38580  0.11420  Biso   1.000  C
  C60      1.0000 0.05660  0.44340  0.05660  Biso   1.000  C
  C61      1.0000 0.38580  0.38580  0.11420  Biso   1.000  C
  C62      1.0000 0.44340  0.44340  0.05660  Biso   1.000  C
  C63      1.0000 0.11420  0.11420  0.38580  Biso   1.000  C
  C64      1.0000 0.05660  0.05660  0.44340  Biso   1.000  C
  C65      1.0000 0.38580  0.11420  0.11420  Biso   1.000  C
  C66      1.0000 0.44340  0.05660  0.05660  Biso   1.000  C
  C67      1.0000 0.11420  0.38580  0.38580  Biso   1.000  C
  C68      1.0000 0.05660  0.44340  0.44340  Biso   1.000  C
  C69      1.0000 0.88580  0.61420  0.61420  Biso   1.000  C
  C70      1.0000 0.94340  0.55660  0.55660  Biso   1.000  C
  C71      1.0000 0.61420  0.88580  0.88580  Biso   1.000  C
  C72      1.0000 0.55660  0.94340  0.94340  Biso   1.000  C
  C73      1.0000 0.61420  0.61420  0.88580  Biso   1.000  C
  C74      1.0000 0.55660  0.55660  0.94340  Biso   1.000  C
  C75      1.0000 0.88580  0.88580  0.61420  Biso   1.000  C
  C76      1.0000 0.94340  0.94340  0.55660  Biso   1.000  C
  C77      1.0000 0.88580  0.61420  0.88580  Biso   1.000  C
  C78      1.0000 0.94340  0.55660  0.94340  Biso   1.000  C
  C79      1.0000 0.61420  0.88580  0.61420  Biso   1.000  C
  C80      1.0000 0.55660  0.94340  0.55660  Biso   1.000  C
  C81      1.0000 0.25000  0.25000  0.25000  Biso   1.000  C
  C82      1.0000 0.75000  0.75000  0.75000  Biso   1.000  C
  C83      1.0000 0.42610  0.13570  0.30250  Biso   1.000  C
  C84      1.0000 0.13570  0.42610  0.13570  Biso   1.000  C
  C85      1.0000 0.30250  0.13570  0.42610  Biso   1.000  C
  C86      1.0000 0.13570  0.30250  0.13570  Biso   1.000  C
  C87      1.0000 0.42610  0.30250  0.13570  Biso   1.000  C
  C88      1.0000 0.13570  0.13570  0.30250  Biso   1.000  C
  C89      1.0000 0.30250  0.42610  0.13570  Biso   1.000  C
  C90      1.0000 0.13570  0.13570  0.42610  Biso   1.000  C
  C91      1.0000 0.42610  0.13570  0.13570  Biso   1.000  C
  C92      1.0000 0.13570  0.30250  0.42610  Biso   1.000  C
  C93      1.0000 0.30250  0.13570  0.13570  Biso   1.000  C
  C94      1.0000 0.13570  0.42610  0.30250  Biso   1.000  C
  C95      1.0000 0.86430  0.57390  0.69750  Biso   1.000  C
  C96      1.0000 0.57390  0.86430  0.86430  Biso   1.000  C
  C97      1.0000 0.86430  0.69750  0.57390  Biso   1.000  C
  C98      1.0000 0.69750  0.86430  0.86430  Biso   1.000  C
  C99      1.0000 0.69750  0.57390  0.86430  Biso   1.000  C
  C100     1.0000 0.86430  0.86430  0.69750  Biso   1.000  C
  C101     1.0000 0.57390  0.69750  0.86430  Biso   1.000  C
  C102     1.0000 0.86430  0.86430  0.57390  Biso   1.000  C
  C103     1.0000 0.86430  0.57390  0.86430  Biso   1.000  C
  C104     1.0000 0.69750  0.86430  0.57390  Biso   1.000  C
  C105     1.0000 0.86430  0.69750  0.86430  Biso   1.000  C
  C106     1.0000 0.57390  0.86430  0.69750  Biso   1.000  C
  O1       1.0000 0.00000  0.00000  0.00000  Biso   1.000  O
  O2       1.0000 0.40704  0.40704  0.59282  Biso   1.000  O
  O3       1.0000 0.23059  0.58349  0.59282  Biso   1.000  O
  O4       1.0000 0.82355  0.17645  0.00000  Biso   1.000  O
  O5       1.0000 0.82321  0.99966  0.17667  Biso   1.000  O
  O6       1.0000 0.82340  0.99985  0.99990  Biso   1.000  O
  O7       1.0000 0.40738  0.58383  0.41615  Biso   1.000  O
  O8       1.0000 0.40719  0.58364  0.59292  Biso   1.000  O
  O9       1.0000 0.66202  0.34871  0.14486  Biso   1.000  O
  O10      1.0000 0.65878  0.14094  0.35847  Biso   1.000  O
  O11      1.0000 0.66295  0.34762  0.83841  Biso   1.000  O
  O12      1.0000 0.65891  0.14349  0.83609  Biso   1.000  O
  O13      1.0000 0.17400  0.14148  0.84094  Biso   1.000  O
  O14      1.0000 0.05833  0.74502  0.44797  Biso   1.000  O
  O15      1.0000 0.26610  0.74826  0.23436  Biso   1.000  O
  O16      1.0000 0.05942  0.74410  0.75441  Biso   1.000  O
  O17      1.0000 0.26354  0.74813  0.75673  Biso   1.000  O
  O18      1.0000 0.26556  0.23304  0.75189  Biso   1.000  O
  O19      1.0000 0.56857  0.23477  0.44797  Biso   1.000  O
  O20      1.0000 0.57182  0.44254  0.23436  Biso   1.000  O
  O21      1.0000 0.56764  0.23587  0.75441  Biso   1.000  O
  O22      1.0000 0.57169  0.43999  0.75673  Biso   1.000  O
  O23      1.0000 0.05660  0.44201  0.75189  Biso   1.000  O
  O24      1.0000 0.17227  0.83847  0.14486  Biso   1.000  O
  O25      1.0000 0.96450  0.83523  0.35847  Biso   1.000  O
  O26      1.0000 0.17118  0.83939  0.83841  Biso   1.000  O
  O27      1.0000 0.96705  0.83535  0.83609  Biso   1.000  O
  O28      1.0000 0.96503  0.35044  0.84094  Biso   1.000  O
  O29      1.0000 0.66010  0.83655  0.14274  Biso   1.000  O
  O30      1.0000 0.65898  0.83543  0.36079  Biso   1.000  O
  O31      1.0000 0.57049  0.74694  0.45009  Biso   1.000  O
  O32      1.0000 0.57161  0.74806  0.23204  Biso   1.000  O
  O33      1.0000 0.72851  0.18505  0.18158  Biso   1.000  O
  O34      1.0000 0.66827  0.24366  0.24334  Biso   1.000  O
  O35      1.0000 0.64315  0.32278  0.20762  Biso   1.000  O
  O36      1.0000 0.64193  0.20360  0.33223  Biso   1.000  O
  O37      1.0000 0.72973  0.18183  0.90198  Biso   1.000  O
  O38      1.0000 0.67192  0.24086  0.84618  Biso   1.000  O
  O39      1.0000 0.64479  0.32118  0.82025  Biso   1.000  O
  O40      1.0000 0.64196  0.20605  0.81844  Biso   1.000  O
  O41      1.0000 0.14766  0.20413  0.82066  Biso   1.000  O
  O42      1.0000 0.22200  0.67853  0.41124  Biso   1.000  O
  O43      1.0000 0.16338  0.73877  0.34949  Biso   1.000  O
  O44      1.0000 0.08426  0.76389  0.38521  Biso   1.000  O
  O45      1.0000 0.20344  0.76511  0.26059  Biso   1.000  O
  O46      1.0000 0.22521  0.67731  0.69084  Biso   1.000  O
  O47      1.0000 0.16618  0.73512  0.74664  Biso   1.000  O
  O48      1.0000 0.08585  0.76226  0.77257  Biso   1.000  O
  O49      1.0000 0.20099  0.76508  0.77439  Biso   1.000  O
  O50      1.0000 0.20290  0.25938  0.77217  Biso   1.000  O
  O51      1.0000 0.50209  0.39844  0.41124  Biso   1.000  O
  O52      1.0000 0.56233  0.33982  0.34949  Biso   1.000  O
  O53      1.0000 0.58744  0.26071  0.38521  Biso   1.000  O
  O54      1.0000 0.58867  0.37988  0.26059  Biso   1.000  O
  O55      1.0000 0.50086  0.40165  0.69084  Biso   1.000  O
  O56      1.0000 0.55867  0.34263  0.74664  Biso   1.000  O
  O57      1.0000 0.58580  0.26230  0.77257  Biso   1.000  O
  O58      1.0000 0.58864  0.37743  0.77439  Biso   1.000  O
  O59      1.0000 0.08293  0.37935  0.77217  Biso   1.000  O
  O60      1.0000 0.00860  0.90496  0.18158  Biso   1.000  O
  O61      1.0000 0.06722  0.84472  0.24334  Biso   1.000  O
  O62      1.0000 0.14633  0.81960  0.20762  Biso   1.000  O
  O63      1.0000 0.02715  0.81838  0.33223  Biso   1.000  O
  O64      1.0000 0.00538  0.90618  0.90198  Biso   1.000  O
  O65      1.0000 0.06441  0.84837  0.84618  Biso   1.000  O
  O66      1.0000 0.14474  0.82123  0.82025  Biso   1.000  O
  O67      1.0000 0.02961  0.81840  0.81844  Biso   1.000  O
  O68      1.0000 0.02769  0.32411  0.82066  Biso   1.000  O
  O69      1.0000 0.72770  0.90415  0.18845  Biso   1.000  O
  O70      1.0000 0.66999  0.84643  0.24112  Biso   1.000  O
  O71      1.0000 0.64254  0.81899  0.20530  Biso   1.000  O
  O72      1.0000 0.64133  0.81777  0.33344  Biso   1.000  O
  O73      1.0000 0.00357  0.18002  0.91006  Biso   1.000  O
  O74      1.0000 0.06582  0.24227  0.84608  Biso   1.000  O
  O75      1.0000 0.50289  0.67934  0.40438  Biso   1.000  O
  O76      1.0000 0.56061  0.73705  0.35171  Biso   1.000  O
  O77      1.0000 0.58805  0.76450  0.38753  Biso   1.000  O
  O78      1.0000 0.58927  0.76571  0.25938  Biso   1.000  O
  O79      1.0000 0.22703  0.40347  0.68277  Biso   1.000  O
  O80      1.0000 0.16477  0.34121  0.74674  Biso   1.000  O
  O81      1.0000 0.74808  0.09888  0.22790  Biso   1.000  O
  O82      1.0000 0.75020  0.22934  0.09662  Biso   1.000  O
  O83      1.0000 0.74668  0.09788  0.92872  Biso   1.000  O
  O84      1.0000 0.74961  0.22633  0.92469  Biso   1.000  O
  O85      1.0000 0.04998  0.09688  0.92751  Biso   1.000  O
  O86      1.0000 0.30816  0.65896  0.36492  Biso   1.000  O
  O87      1.0000 0.17770  0.65683  0.49620  Biso   1.000  O
  O88      1.0000 0.30916  0.66036  0.66410  Biso   1.000  O
  O89      1.0000 0.18071  0.65743  0.66814  Biso   1.000  O
  O90      1.0000 0.31017  0.35706  0.66531  Biso   1.000  O
  O91      1.0000 0.48252  0.48461  0.36492  Biso   1.000  O
  O92      1.0000 0.48039  0.35414  0.49620  Biso   1.000  O
  O93      1.0000 0.48391  0.48560  0.66410  Biso   1.000  O
  O94      1.0000 0.48099  0.35716  0.66814  Biso   1.000  O
  O95      1.0000 0.18062  0.48661  0.66531  Biso   1.000  O
  O96      1.0000 0.92243  0.92453  0.22790  Biso   1.000  O
  O97      1.0000 0.05290  0.92665  0.09662  Biso   1.000  O
  O98      1.0000 0.92144  0.92313  0.92872  Biso   1.000  O
  O99      1.0000 0.04988  0.92606  0.92469  Biso   1.000  O
  O100     1.0000 0.92042  0.22643  0.92751  Biso   1.000  O
  O101     1.0000 0.86775  0.04420  0.04446  Biso   1.000  O
  O102     1.0000 0.74909  0.92554  0.22719  Biso   1.000  O
  O103     1.0000 0.74677  0.92322  0.10470  Biso   1.000  O
  O104     1.0000 0.36284  0.53929  0.54837  Biso   1.000  O
  O105     1.0000 0.48150  0.65795  0.36563  Biso   1.000  O
