data_image0
_cell_length_a       18.3054
_cell_length_b       18.3054
_cell_length_c       18.3054
_cell_angle_alpha    60
_cell_angle_beta     60
_cell_angle_gamma    60

_symmetry_space_group_name_H-M    "P 1"
_symmetry_int_tables_number       1

loop_
  _symmetry_equiv_pos_as_xyz
  'x, y, z'

loop_
  _atom_site_label
  _atom_site_occupancy
  _atom_site_fract_x
  _atom_site_fract_y
  _atom_site_fract_z
  _atom_site_thermal_displace_type
  _atom_site_B_iso_or_equiv
  _atom_site_type_symbol
  Zn1      1.0000 0.20570  0.38290  0.20570  Biso   1.000  Zn
  Zn2      1.0000 0.38290  0.20570  0.20570  Biso   1.000  Zn
  Zn3      1.0000 0.20570  0.20570  0.20570  Biso   1.000  Zn
  Zn4      1.0000 0.20570  0.20570  0.38290  Biso   1.000  Zn
  Zn5      1.0000 0.61710  0.79430  0.79430  Biso   1.000  Zn
  Zn6      1.0000 0.79430  0.61710  0.79430  Biso   1.000  Zn
  Zn7      1.0000 0.79430  0.79430  0.79430  Biso   1.000  Zn
  Zn8      1.0000 0.79430  0.79430  0.61710  Biso   1.000  Zn
  H1       1.0000 0.04300  0.56200  0.04300  Biso   1.000  H
  H2       1.0000 0.56200  0.04300  0.35200  Biso   1.000  H
  H3       1.0000 0.04300  0.35200  0.04300  Biso   1.000  H
  H4       1.0000 0.35200  0.04300  0.56200  Biso   1.000  H
  H5       1.0000 0.04300  0.04300  0.35200  Biso   1.000  H
  H6       1.0000 0.56200  0.35200  0.04300  Biso   1.000  H
  H7       1.0000 0.04300  0.04300  0.56200  Biso   1.000  H
  H8       1.0000 0.35200  0.56200  0.04300  Biso   1.000  H
  H9       1.0000 0.04300  0.35200  0.56200  Biso   1.000  H
  H10      1.0000 0.56200  0.04300  0.04300  Biso   1.000  H
  H11      1.0000 0.04300  0.56200  0.35200  Biso   1.000  H
  H12      1.0000 0.35200  0.04300  0.04300  Biso   1.000  H
  H13      1.0000 0.43800  0.95700  0.95700  Biso   1.000  H
  H14      1.0000 0.95700  0.43800  0.64800  Biso   1.000  H
  H15      1.0000 0.64800  0.95700  0.95700  Biso   1.000  H
  H16      1.0000 0.95700  0.64800  0.43800  Biso   1.000  H
  H17      1.0000 0.95700  0.95700  0.64800  Biso   1.000  H
  H18      1.0000 0.64800  0.43800  0.95700  Biso   1.000  H
  H19      1.0000 0.95700  0.95700  0.43800  Biso   1.000  H
  H20      1.0000 0.43800  0.64800  0.95700  Biso   1.000  H
  H21      1.0000 0.64800  0.95700  0.43800  Biso   1.000  H
  H22      1.0000 0.95700  0.43800  0.95700  Biso   1.000  H
  H23      1.0000 0.43800  0.95700  0.64800  Biso   1.000  H
  H24      1.0000 0.95700  0.64800  0.95700  Biso   1.000  H
  C1       1.0000 0.02820  0.53920  0.02820  Biso   1.000  C
  C2       1.0000 0.53920  0.02820  0.40440  Biso   1.000  C
  C3       1.0000 0.02820  0.40440  0.02820  Biso   1.000  C
  C4       1.0000 0.40440  0.02820  0.53920  Biso   1.000  C
  C5       1.0000 0.02820  0.02820  0.40440  Biso   1.000  C
  C6       1.0000 0.53920  0.40440  0.02820  Biso   1.000  C
  C7       1.0000 0.02820  0.02820  0.53920  Biso   1.000  C
  C8       1.0000 0.40440  0.53920  0.02820  Biso   1.000  C
  C9       1.0000 0.02820  0.40440  0.53920  Biso   1.000  C
  C10      1.0000 0.53920  0.02820  0.02820  Biso   1.000  C
  C11      1.0000 0.02820  0.53920  0.40440  Biso   1.000  C
  C12      1.0000 0.40440  0.02820  0.02820  Biso   1.000  C
  C13      1.0000 0.46080  0.97180  0.97180  Biso   1.000  C
  C14      1.0000 0.97180  0.46080  0.59560  Biso   1.000  C
  C15      1.0000 0.59560  0.97180  0.97180  Biso   1.000  C
  C16      1.0000 0.97180  0.59560  0.46080  Biso   1.000  C
  C17      1.0000 0.97180  0.97180  0.59560  Biso   1.000  C
  C18      1.0000 0.59560  0.46080  0.97180  Biso   1.000  C
  C19      1.0000 0.97180  0.97180  0.46080  Biso   1.000  C
  C20      1.0000 0.46080  0.59560  0.97180  Biso   1.000  C
  C21      1.0000 0.59560  0.97180  0.46080  Biso   1.000  C
  C22      1.0000 0.97180  0.46080  0.97180  Biso   1.000  C
  C23      1.0000 0.46080  0.97180  0.59560  Biso   1.000  C
  C24      1.0000 0.97180  0.59560  0.97180  Biso   1.000  C
  C25      1.0000 0.11460  0.38540  0.11460  Biso   1.000  C
  C26      1.0000 0.05410  0.44590  0.05410  Biso   1.000  C
  C27      1.0000 0.38540  0.11460  0.38540  Biso   1.000  C
  C28      1.0000 0.44590  0.05410  0.44590  Biso   1.000  C
  C29      1.0000 0.11460  0.11460  0.38540  Biso   1.000  C
  C30      1.0000 0.05410  0.05410  0.44590  Biso   1.000  C
  C31      1.0000 0.38540  0.38540  0.11460  Biso   1.000  C
  C32      1.0000 0.44590  0.44590  0.05410  Biso   1.000  C
  C33      1.0000 0.11460  0.38540  0.38540  Biso   1.000  C
  C34      1.0000 0.05410  0.44590  0.44590  Biso   1.000  C
  C35      1.0000 0.38540  0.11460  0.11460  Biso   1.000  C
  C36      1.0000 0.44590  0.05410  0.05410  Biso   1.000  C
  C37      1.0000 0.61460  0.88540  0.88540  Biso   1.000  C
  C38      1.0000 0.55410  0.94590  0.94590  Biso   1.000  C
  C39      1.0000 0.88540  0.61460  0.61460  Biso   1.000  C
  C40      1.0000 0.94590  0.55410  0.55410  Biso   1.000  C
  C41      1.0000 0.88540  0.88540  0.61460  Biso   1.000  C
  C42      1.0000 0.94590  0.94590  0.55410  Biso   1.000  C
  C43      1.0000 0.61460  0.61460  0.88540  Biso   1.000  C
  C44      1.0000 0.55410  0.55410  0.94590  Biso   1.000  C
  C45      1.0000 0.61460  0.88540  0.61460  Biso   1.000  C
  C46      1.0000 0.55410  0.94590  0.55410  Biso   1.000  C
  C47      1.0000 0.88540  0.61460  0.88540  Biso   1.000  C
  C48      1.0000 0.94590  0.55410  0.94590  Biso   1.000  C
  O1       1.0000 0.25000  0.25000  0.25000  Biso   1.000  O
  O2       1.0000 0.75000  0.75000  0.75000  Biso   1.000  O
  O3       1.0000 0.13360  0.42920  0.13360  Biso   1.000  O
  O4       1.0000 0.42920  0.13360  0.30360  Biso   1.000  O
  O5       1.0000 0.13360  0.30360  0.13360  Biso   1.000  O
  O6       1.0000 0.30360  0.13360  0.42920  Biso   1.000  O
  O7       1.0000 0.13360  0.13360  0.30360  Biso   1.000  O
  O8       1.0000 0.42920  0.30360  0.13360  Biso   1.000  O
  O9       1.0000 0.13360  0.13360  0.42920  Biso   1.000  O
  O10      1.0000 0.30360  0.42920  0.13360  Biso   1.000  O
  O11      1.0000 0.13360  0.30360  0.42920  Biso   1.000  O
  O12      1.0000 0.42920  0.13360  0.13360  Biso   1.000  O
  O13      1.0000 0.13360  0.42920  0.30360  Biso   1.000  O
  O14      1.0000 0.30360  0.13360  0.13360  Biso   1.000  O
  O15      1.0000 0.57080  0.86640  0.86640  Biso   1.000  O
  O16      1.0000 0.86640  0.57080  0.69640  Biso   1.000  O
  O17      1.0000 0.69640  0.86640  0.86640  Biso   1.000  O
  O18      1.0000 0.86640  0.69640  0.57080  Biso   1.000  O
  O19      1.0000 0.86640  0.86640  0.69640  Biso   1.000  O
  O20      1.0000 0.69640  0.57080  0.86640  Biso   1.000  O
  O21      1.0000 0.86640  0.86640  0.57080  Biso   1.000  O
  O22      1.0000 0.57080  0.69640  0.86640  Biso   1.000  O
  O23      1.0000 0.69640  0.86640  0.57080  Biso   1.000  O
  O24      1.0000 0.86640  0.57080  0.86640  Biso   1.000  O
  O25      1.0000 0.57080  0.86640  0.69640  Biso   1.000  O
  O26      1.0000 0.86640  0.69640  0.86640  Biso   1.000  O
  Zn9      1.0000 0.99128  0.97167  0.86978  Biso   1.000  Zn
  Zn10     1.0000 0.99133  0.14349  0.86973  Biso   1.000  Zn
  Zn11     1.0000 0.16315  0.97167  0.86978  Biso   1.000  Zn
  Zn12     1.0000 0.99133  0.97162  0.04160  Biso   1.000  Zn
  Zn13     1.0000 0.57302  0.56179  0.45991  Biso   1.000  Zn
  Zn14     1.0000 0.57298  0.38997  0.45996  Biso   1.000  Zn
  Zn15     1.0000 0.40116  0.56179  0.45991  Biso   1.000  Zn
  Zn16     1.0000 0.57298  0.56184  0.28810  Biso   1.000  Zn
  C49      1.0000 0.81238  0.17086  0.69183  Biso   1.000  C
  C50      1.0000 0.19073  0.79350  0.68983  Biso   1.000  C
  C51      1.0000 0.81178  0.79450  0.06898  Biso   1.000  C
  C52      1.0000 0.81339  0.30963  0.69083  Biso   1.000  C
  C53      1.0000 0.81139  0.31064  0.06918  Biso   1.000  C
  C54      1.0000 0.19055  0.30944  0.69023  Biso   1.000  C
  C55      1.0000 0.32081  0.79371  0.06897  Biso   1.000  C
  C56      1.0000 0.32181  0.79172  0.69162  Biso   1.000  C
  C57      1.0000 0.32061  0.17087  0.69261  Biso   1.000  C
  C58      1.0000 0.18203  0.79271  0.20775  Biso   1.000  C
  C59      1.0000 0.80467  0.17107  0.20876  Biso   1.000  C
  C60      1.0000 0.80567  0.79211  0.20757  Biso   1.000  C
  C61      1.0000 0.75193  0.36260  0.63787  Biso   1.000  C
  C62      1.0000 0.37357  0.73996  0.63986  Biso   1.000  C
  C63      1.0000 0.75252  0.73896  0.26071  Biso   1.000  C
  C64      1.0000 0.75092  0.22383  0.63886  Biso   1.000  C
  C65      1.0000 0.75291  0.22282  0.26051  Biso   1.000  C
  C66      1.0000 0.37376  0.22402  0.63946  Biso   1.000  C
  C67      1.0000 0.24350  0.73975  0.26072  Biso   1.000  C
  C68      1.0000 0.24249  0.74174  0.63808  Biso   1.000  C
  C69      1.0000 0.24369  0.36259  0.63708  Biso   1.000  C
  C70      1.0000 0.38227  0.74075  0.12194  Biso   1.000  C
  C71      1.0000 0.75964  0.36239  0.12094  Biso   1.000  C
  C72      1.0000 0.75864  0.74135  0.12213  Biso   1.000  C
  C73      1.0000 0.83973  0.20915  0.71819  Biso   1.000  C
  C74      1.0000 0.89792  0.15096  0.77637  Biso   1.000  C
  C75      1.0000 0.22881  0.82008  0.10726  Biso   1.000  C
  C76      1.0000 0.17062  0.87826  0.04907  Biso   1.000  C
  C77      1.0000 0.72457  0.32432  0.61150  Biso   1.000  C
  C78      1.0000 0.66639  0.38250  0.55332  Biso   1.000  C
  C79      1.0000 0.33550  0.71338  0.22244  Biso   1.000  C
  C80      1.0000 0.39368  0.65520  0.28062  Biso   1.000  C
  C81      1.0000 0.83954  0.81988  0.10745  Biso   1.000  C
  C82      1.0000 0.89744  0.87778  0.04955  Biso   1.000  C
  C83      1.0000 0.22900  0.20934  0.71799  Biso   1.000  C
  C84      1.0000 0.17110  0.15144  0.77590  Biso   1.000  C
  C85      1.0000 0.72476  0.71358  0.22224  Biso   1.000  C
  C86      1.0000 0.66686  0.65568  0.28014  Biso   1.000  C
  C87      1.0000 0.33531  0.32412  0.61170  Biso   1.000  C
  C88      1.0000 0.39321  0.38202  0.55380  Biso   1.000  C
  C89      1.0000 0.22920  0.81968  0.71779  Biso   1.000  C
  C90      1.0000 0.17130  0.87758  0.77570  Biso   1.000  C
  C91      1.0000 0.83934  0.20955  0.10765  Biso   1.000  C
  C92      1.0000 0.89724  0.15164  0.04975  Biso   1.000  C
  C93      1.0000 0.33510  0.71378  0.61190  Biso   1.000  C
  C94      1.0000 0.39300  0.65588  0.55400  Biso   1.000  C
  C95      1.0000 0.72497  0.32392  0.22204  Biso   1.000  C
  C96      1.0000 0.66706  0.38182  0.27995  Biso   1.000  C
  O27      1.0000 0.92033  0.06744  0.79719  Biso   1.000  O
  O28      1.0000 0.91840  0.90067  0.96638  Biso   1.000  O
  O29      1.0000 0.08668  0.90031  0.79761  Biso   1.000  O
  O30      1.0000 0.91874  0.19126  0.79878  Biso   1.000  O
  O31      1.0000 0.08793  0.19076  0.79686  Biso   1.000  O
  O32      1.0000 0.91915  0.19162  0.96513  Biso   1.000  O
  O33      1.0000 0.21092  0.89908  0.96555  Biso   1.000  O
  O34      1.0000 0.21042  0.06827  0.79878  Biso   1.000  O
  O35      1.0000 0.21128  0.89950  0.79842  Biso   1.000  O
  O36      1.0000 0.08710  0.90067  0.08937  Biso   1.000  O
  O37      1.0000 0.92033  0.89874  0.08887  Biso   1.000  O
  O38      1.0000 0.91997  0.06702  0.08973  Biso   1.000  O
  O39      1.0000 0.64398  0.46602  0.53250  Biso   1.000  O
  O40      1.0000 0.64590  0.63279  0.36331  Biso   1.000  O
  O41      1.0000 0.47762  0.63315  0.53208  Biso   1.000  O
  O42      1.0000 0.64557  0.34220  0.53091  Biso   1.000  O
  O43      1.0000 0.47638  0.34270  0.53284  Biso   1.000  O
  O44      1.0000 0.64515  0.34184  0.36456  Biso   1.000  O
  O45      1.0000 0.35339  0.63438  0.36414  Biso   1.000  O
  O46      1.0000 0.35388  0.46519  0.53091  Biso   1.000  O
  O47      1.0000 0.35303  0.63397  0.53127  Biso   1.000  O
  O48      1.0000 0.47720  0.63279  0.24033  Biso   1.000  O
  O49      1.0000 0.64398  0.63472  0.24082  Biso   1.000  O
  O50      1.0000 0.64434  0.46644  0.23997  Biso   1.000  O
  O51      1.0000 0.03427  0.01461  0.91272  Biso   1.000  O
  O52      1.0000 0.53003  0.51885  0.41697  Biso   1.000  O
  H25      1.0000 0.11478  0.81626  0.71112  Biso   1.000  H
  H26      1.0000 0.35372  0.81301  0.71437  Biso   1.000  H
  H27      1.0000 0.44952  0.71720  0.61857  Biso   1.000  H
  H28      1.0000 0.21059  0.72046  0.61532  Biso   1.000  H
  H29      1.0000 0.35252  0.09493  0.71561  Biso   1.000  H
  H30      1.0000 0.44970  0.19211  0.61843  Biso   1.000  H
  H31      1.0000 0.83281  0.81750  0.99304  Biso   1.000  H
  H32      1.0000 0.73563  0.72032  0.09022  Biso   1.000  H
  H33      1.0000 0.83581  0.34155  0.71244  Biso   1.000  H
  H34      1.0000 0.83268  0.34254  0.99323  Biso   1.000  H
  H35      1.0000 0.45822  0.71914  0.09002  Biso   1.000  H
  H36      1.0000 0.73688  0.43834  0.08903  Biso   1.000  H
  H37      1.0000 0.11461  0.34135  0.71126  Biso   1.000  H
  H38      1.0000 0.21178  0.43853  0.61408  Biso   1.000  H
  H39      1.0000 0.82867  0.81314  0.23947  Biso   1.000  H
  H40      1.0000 0.73149  0.71596  0.33665  Biso   1.000  H
  H41      1.0000 0.21158  0.71732  0.33667  Biso   1.000  H
  H42      1.0000 0.82743  0.09512  0.24066  Biso   1.000  H
  H43      1.0000 0.73162  0.19092  0.33646  Biso   1.000  H
  H44      1.0000 0.10608  0.81432  0.23967  Biso   1.000  H
  H45      1.0000 0.72849  0.19191  0.61726  Biso   1.000  H
  H46      1.0000 0.83399  0.09491  0.71425  Biso   1.000  H
  H47      1.0000 0.73032  0.43855  0.61544  Biso   1.000  H
