data_image0
_cell_length_a       18.1507
_cell_length_b       18.1507
_cell_length_c       18.1507
_cell_angle_alpha    60
_cell_angle_beta     60
_cell_angle_gamma    60

_symmetry_space_group_name_H-M    "P 1"
_symmetry_int_tables_number       1

loop_
  _symmetry_equiv_pos_as_xyz
  'x, y, z'

loop_
  _atom_site_label
  _atom_site_occupancy
  _atom_site_fract_x
  _atom_site_fract_y
  _atom_site_fract_z
  _atom_site_thermal_displace_type
  _atom_site_B_iso_or_equiv
  _atom_site_type_symbol
  Zn1      1.0000 0.29350  0.29350  0.29350  Biso   1.000  Zn
  Zn2      1.0000 0.29350  0.29350  0.11950  Biso   1.000  Zn
  Zn3      1.0000 0.29350  0.11950  0.29350  Biso   1.000  Zn
  Zn4      1.0000 0.11950  0.29350  0.29350  Biso   1.000  Zn
  Zn5      1.0000 0.70650  0.70650  0.70650  Biso   1.000  Zn
  Zn6      1.0000 0.70650  0.70650  0.88050  Biso   1.000  Zn
  Zn7      1.0000 0.88050  0.70650  0.70650  Biso   1.000  Zn
  Zn8      1.0000 0.70650  0.88050  0.70650  Biso   1.000  Zn
  H1       1.0000 0.45480  0.45480  0.15700  Biso   1.000  H
  H2       1.0000 0.45480  0.45480  0.93340  Biso   1.000  H
  H3       1.0000 0.15700  0.93340  0.45480  Biso   1.000  H
  H4       1.0000 0.93340  0.15700  0.45480  Biso   1.000  H
  H5       1.0000 0.45480  0.15700  0.93340  Biso   1.000  H
  H6       1.0000 0.45480  0.93340  0.15700  Biso   1.000  H
  H7       1.0000 0.15700  0.45480  0.45480  Biso   1.000  H
  H8       1.0000 0.93340  0.45480  0.45480  Biso   1.000  H
  H9       1.0000 0.45480  0.93340  0.45480  Biso   1.000  H
  H10      1.0000 0.45480  0.15700  0.45480  Biso   1.000  H
  H11      1.0000 0.15700  0.45480  0.93340  Biso   1.000  H
  H12      1.0000 0.93340  0.45480  0.15700  Biso   1.000  H
  H13      1.0000 0.54520  0.54520  0.84300  Biso   1.000  H
  H14      1.0000 0.54520  0.54520  0.06660  Biso   1.000  H
  H15      1.0000 0.06660  0.84300  0.54520  Biso   1.000  H
  H16      1.0000 0.84300  0.06660  0.54520  Biso   1.000  H
  H17      1.0000 0.84300  0.54520  0.06660  Biso   1.000  H
  H18      1.0000 0.06660  0.54520  0.84300  Biso   1.000  H
  H19      1.0000 0.54520  0.84300  0.54520  Biso   1.000  H
  H20      1.0000 0.54520  0.06660  0.54520  Biso   1.000  H
  H21      1.0000 0.06660  0.54520  0.54520  Biso   1.000  H
  H22      1.0000 0.84300  0.54520  0.54520  Biso   1.000  H
  H23      1.0000 0.54520  0.84300  0.06660  Biso   1.000  H
  H24      1.0000 0.54520  0.06660  0.84300  Biso   1.000  H
  C1       1.0000 0.47370  0.47370  0.09250  Biso   1.000  C
  C2       1.0000 0.47370  0.47370  0.96010  Biso   1.000  C
  C3       1.0000 0.09250  0.96010  0.47370  Biso   1.000  C
  C4       1.0000 0.96010  0.09250  0.47370  Biso   1.000  C
  C5       1.0000 0.47370  0.09250  0.96010  Biso   1.000  C
  C6       1.0000 0.47370  0.96010  0.09250  Biso   1.000  C
  C7       1.0000 0.09250  0.47370  0.47370  Biso   1.000  C
  C8       1.0000 0.96010  0.47370  0.47370  Biso   1.000  C
  C9       1.0000 0.47370  0.96010  0.47370  Biso   1.000  C
  C10      1.0000 0.47370  0.09250  0.47370  Biso   1.000  C
  C11      1.0000 0.09250  0.47370  0.96010  Biso   1.000  C
  C12      1.0000 0.96010  0.47370  0.09250  Biso   1.000  C
  C13      1.0000 0.52630  0.52630  0.90750  Biso   1.000  C
  C14      1.0000 0.52630  0.52630  0.03990  Biso   1.000  C
  C15      1.0000 0.03990  0.90750  0.52630  Biso   1.000  C
  C16      1.0000 0.90750  0.03990  0.52630  Biso   1.000  C
  C17      1.0000 0.90750  0.52630  0.03990  Biso   1.000  C
  C18      1.0000 0.03990  0.52630  0.90750  Biso   1.000  C
  C19      1.0000 0.52630  0.90750  0.52630  Biso   1.000  C
  C20      1.0000 0.52630  0.03990  0.52630  Biso   1.000  C
  C21      1.0000 0.03990  0.52630  0.52630  Biso   1.000  C
  C22      1.0000 0.90750  0.52630  0.52630  Biso   1.000  C
  C23      1.0000 0.52630  0.90750  0.03990  Biso   1.000  C
  C24      1.0000 0.52630  0.03990  0.90750  Biso   1.000  C
  C25      1.0000 0.38950  0.38950  0.11050  Biso   1.000  C
  C26      1.0000 0.44620  0.44620  0.05380  Biso   1.000  C
  C27      1.0000 0.11050  0.11050  0.38950  Biso   1.000  C
  C28      1.0000 0.05380  0.05380  0.44620  Biso   1.000  C
  C29      1.0000 0.38950  0.11050  0.11050  Biso   1.000  C
  C30      1.0000 0.44620  0.05380  0.05380  Biso   1.000  C
  C31      1.0000 0.11050  0.38950  0.38950  Biso   1.000  C
  C32      1.0000 0.05380  0.44620  0.44620  Biso   1.000  C
  C33      1.0000 0.38950  0.11050  0.38950  Biso   1.000  C
  C34      1.0000 0.44620  0.05380  0.44620  Biso   1.000  C
  C35      1.0000 0.11050  0.38950  0.11050  Biso   1.000  C
  C36      1.0000 0.05380  0.44620  0.05380  Biso   1.000  C
  C37      1.0000 0.61050  0.61050  0.88950  Biso   1.000  C
  C38      1.0000 0.55380  0.55380  0.94620  Biso   1.000  C
  C39      1.0000 0.88950  0.88950  0.61050  Biso   1.000  C
  C40      1.0000 0.94620  0.94620  0.55380  Biso   1.000  C
  C41      1.0000 0.88950  0.61050  0.88950  Biso   1.000  C
  C42      1.0000 0.94620  0.55380  0.94620  Biso   1.000  C
  C43      1.0000 0.61050  0.88950  0.61050  Biso   1.000  C
  C44      1.0000 0.55380  0.94620  0.55380  Biso   1.000  C
  C45      1.0000 0.88950  0.61050  0.61050  Biso   1.000  C
  C46      1.0000 0.94620  0.55380  0.55380  Biso   1.000  C
  C47      1.0000 0.61050  0.88950  0.88950  Biso   1.000  C
  C48      1.0000 0.55380  0.94620  0.94620  Biso   1.000  C
  O1       1.0000 0.25000  0.25000  0.25000  Biso   1.000  O
  O2       1.0000 0.75000  0.75000  0.75000  Biso   1.000  O
  O3       1.0000 0.36610  0.36610  0.19750  Biso   1.000  O
  O4       1.0000 0.36610  0.36610  0.07030  Biso   1.000  O
  O5       1.0000 0.19750  0.07030  0.36610  Biso   1.000  O
  O6       1.0000 0.07030  0.19750  0.36610  Biso   1.000  O
  O7       1.0000 0.36610  0.19750  0.07030  Biso   1.000  O
  O8       1.0000 0.36610  0.07030  0.19750  Biso   1.000  O
  O9       1.0000 0.19750  0.36610  0.36610  Biso   1.000  O
  O10      1.0000 0.07030  0.36610  0.36610  Biso   1.000  O
  O11      1.0000 0.36610  0.07030  0.36610  Biso   1.000  O
  O12      1.0000 0.36610  0.19750  0.36610  Biso   1.000  O
  O13      1.0000 0.19750  0.36610  0.07030  Biso   1.000  O
  O14      1.0000 0.07030  0.36610  0.19750  Biso   1.000  O
  O15      1.0000 0.63390  0.63390  0.80250  Biso   1.000  O
  O16      1.0000 0.63390  0.63390  0.92970  Biso   1.000  O
  O17      1.0000 0.92970  0.80250  0.63390  Biso   1.000  O
  O18      1.0000 0.80250  0.92970  0.63390  Biso   1.000  O
  O19      1.0000 0.80250  0.63390  0.92970  Biso   1.000  O
  O20      1.0000 0.92970  0.63390  0.80250  Biso   1.000  O
  O21      1.0000 0.63390  0.80250  0.63390  Biso   1.000  O
  O22      1.0000 0.63390  0.92970  0.63390  Biso   1.000  O
  O23      1.0000 0.92970  0.63390  0.63390  Biso   1.000  O
  O24      1.0000 0.80250  0.63390  0.63390  Biso   1.000  O
  O25      1.0000 0.63390  0.80250  0.92970  Biso   1.000  O
  O26      1.0000 0.63390  0.92970  0.80250  Biso   1.000  O
  Zn9      1.0000 0.68145  0.47873  0.47234  Biso   1.000  Zn
  Zn10     1.0000 0.50599  0.47873  0.64779  Biso   1.000  Zn
  Zn11     1.0000 0.50599  0.65418  0.47234  Biso   1.000  Zn
  Zn12     1.0000 0.50599  0.47873  0.47234  Biso   1.000  Zn
  Zn13     1.0000 0.93089  0.06225  0.05586  Biso   1.000  Zn
  Zn14     1.0000 0.10635  0.06225  0.88041  Biso   1.000  Zn
  Zn15     1.0000 0.10635  0.06225  0.05586  Biso   1.000  Zn
  Zn16     1.0000 0.10635  0.88680  0.05586  Biso   1.000  Zn
  H25      1.0000 0.86822  0.31617  0.61069  Biso   1.000  H
  H26      1.0000 0.65276  0.31617  0.82614  Biso   1.000  H
  H27      1.0000 0.35185  0.83254  0.30978  Biso   1.000  H
  H28      1.0000 0.35185  0.61708  0.30978  Biso   1.000  H
  H29      1.0000 0.35185  0.61708  0.82614  Biso   1.000  H
  H30      1.0000 0.35185  0.83254  0.61069  Biso   1.000  H
  H31      1.0000 0.86822  0.31617  0.30978  Biso   1.000  H
  H32      1.0000 0.65276  0.31617  0.30978  Biso   1.000  H
  H33      1.0000 0.65276  0.83254  0.30978  Biso   1.000  H
  H34      1.0000 0.86822  0.61708  0.30978  Biso   1.000  H
  H35      1.0000 0.35185  0.31617  0.82614  Biso   1.000  H
  H36      1.0000 0.35185  0.31617  0.61069  Biso   1.000  H
  H37      1.0000 0.74412  0.22481  0.91751  Biso   1.000  H
  H38      1.0000 0.95958  0.22481  0.70205  Biso   1.000  H
  H39      1.0000 0.26049  0.92390  0.21842  Biso   1.000  H
  H40      1.0000 0.26049  0.70845  0.21842  Biso   1.000  H
  H41      1.0000 0.26049  0.22481  0.70205  Biso   1.000  H
  H42      1.0000 0.26049  0.22481  0.91751  Biso   1.000  H
  H43      1.0000 0.74412  0.92390  0.21842  Biso   1.000  H
  H44      1.0000 0.95958  0.70845  0.21842  Biso   1.000  H
  H45      1.0000 0.95958  0.22481  0.21842  Biso   1.000  H
  H46      1.0000 0.74412  0.22481  0.21842  Biso   1.000  H
  H47      1.0000 0.26049  0.92390  0.70205  Biso   1.000  H
  H48      1.0000 0.26049  0.70845  0.91751  Biso   1.000  H
  C49      1.0000 0.84082  0.29716  0.67611  Biso   1.000  C
  C50      1.0000 0.71818  0.29716  0.79875  Biso   1.000  C
  C51      1.0000 0.33284  0.80514  0.29077  Biso   1.000  C
  C52      1.0000 0.33284  0.68250  0.29077  Biso   1.000  C
  C53      1.0000 0.33284  0.68250  0.79875  Biso   1.000  C
  C54      1.0000 0.33284  0.80514  0.67611  Biso   1.000  C
  C55      1.0000 0.84082  0.29716  0.29077  Biso   1.000  C
  C56      1.0000 0.71818  0.29716  0.29077  Biso   1.000  C
  C57      1.0000 0.71818  0.80514  0.29077  Biso   1.000  C
  C58      1.0000 0.84082  0.68250  0.29077  Biso   1.000  C
  C59      1.0000 0.33284  0.29716  0.79875  Biso   1.000  C
  C60      1.0000 0.33284  0.29716  0.67611  Biso   1.000  C
  C61      1.0000 0.77152  0.24382  0.85209  Biso   1.000  C
  C62      1.0000 0.89416  0.24382  0.72945  Biso   1.000  C
  C63      1.0000 0.27950  0.85848  0.23743  Biso   1.000  C
  C64      1.0000 0.27950  0.73584  0.23743  Biso   1.000  C
  C65      1.0000 0.27950  0.24382  0.72945  Biso   1.000  C
  C66      1.0000 0.27950  0.24382  0.85209  Biso   1.000  C
  C67      1.0000 0.77152  0.85848  0.23743  Biso   1.000  C
  C68      1.0000 0.89416  0.73584  0.23743  Biso   1.000  C
  C69      1.0000 0.89416  0.24382  0.23743  Biso   1.000  C
  C70      1.0000 0.77152  0.24382  0.23743  Biso   1.000  C
  C71      1.0000 0.27950  0.85848  0.72945  Biso   1.000  C
  C72      1.0000 0.27950  0.73584  0.85209  Biso   1.000  C
  C73      1.0000 0.68932  0.38313  0.65566  Biso   1.000  C
  C74      1.0000 0.74774  0.32471  0.71408  Biso   1.000  C
  C75      1.0000 0.41040  0.66206  0.37674  Biso   1.000  C
  C76      1.0000 0.35198  0.72048  0.31832  Biso   1.000  C
  C77      1.0000 0.41040  0.66206  0.65566  Biso   1.000  C
  C78      1.0000 0.35198  0.72048  0.71408  Biso   1.000  C
  C79      1.0000 0.68932  0.38313  0.37674  Biso   1.000  C
  C80      1.0000 0.74774  0.32471  0.31832  Biso   1.000  C
  C81      1.0000 0.68932  0.66206  0.37674  Biso   1.000  C
  C82      1.0000 0.74774  0.72048  0.31832  Biso   1.000  C
  C83      1.0000 0.41040  0.38313  0.65566  Biso   1.000  C
  C84      1.0000 0.35198  0.32471  0.71408  Biso   1.000  C
  C85      1.0000 0.92302  0.15785  0.87253  Biso   1.000  C
  C86      1.0000 0.86460  0.21627  0.81411  Biso   1.000  C
  C87      1.0000 0.20194  0.87892  0.15146  Biso   1.000  C
  C88      1.0000 0.26036  0.82051  0.20988  Biso   1.000  C
  C89      1.0000 0.20194  0.15785  0.87253  Biso   1.000  C
  C90      1.0000 0.26036  0.21627  0.81411  Biso   1.000  C
  C91      1.0000 0.92302  0.87892  0.15146  Biso   1.000  C
  C92      1.0000 0.86460  0.82051  0.20988  Biso   1.000  C
  C93      1.0000 0.92302  0.15785  0.15146  Biso   1.000  C
  C94      1.0000 0.86460  0.21627  0.20988  Biso   1.000  C
  C95      1.0000 0.20194  0.87892  0.87253  Biso   1.000  C
  C96      1.0000 0.26036  0.82051  0.81411  Biso   1.000  C
  O27      1.0000 0.72888  0.40549  0.57139  Biso   1.000  O
  O28      1.0000 0.60505  0.40549  0.69522  Biso   1.000  O
  O29      1.0000 0.43275  0.70162  0.39909  Biso   1.000  O
  O30      1.0000 0.43275  0.57779  0.39909  Biso   1.000  O
  O31      1.0000 0.43275  0.57779  0.69522  Biso   1.000  O
  O32      1.0000 0.43275  0.70162  0.57139  Biso   1.000  O
  O33      1.0000 0.72888  0.40549  0.39909  Biso   1.000  O
  O34      1.0000 0.60505  0.40549  0.39909  Biso   1.000  O
  O35      1.0000 0.60505  0.70162  0.39909  Biso   1.000  O
  O36      1.0000 0.72888  0.57779  0.39909  Biso   1.000  O
  O37      1.0000 0.43275  0.40549  0.69522  Biso   1.000  O
  O38      1.0000 0.43275  0.40549  0.57139  Biso   1.000  O
  O39      1.0000 0.88346  0.13550  0.95680  Biso   1.000  O
  O40      1.0000 0.00729  0.13550  0.83297  Biso   1.000  O
  O41      1.0000 0.17959  0.96320  0.12910  Biso   1.000  O
  O42      1.0000 0.17959  0.83936  0.12910  Biso   1.000  O
  O43      1.0000 0.17959  0.13550  0.83297  Biso   1.000  O
  O44      1.0000 0.17959  0.13550  0.95680  Biso   1.000  O
  O45      1.0000 0.88346  0.96320  0.12910  Biso   1.000  O
  O46      1.0000 0.00729  0.83936  0.12910  Biso   1.000  O
  O47      1.0000 0.00729  0.13550  0.12910  Biso   1.000  O
  O48      1.0000 0.88346  0.13550  0.12910  Biso   1.000  O
  O49      1.0000 0.17959  0.96320  0.83297  Biso   1.000  O
  O50      1.0000 0.17959  0.83936  0.95680  Biso   1.000  O
  O51      1.0000 0.54986  0.52260  0.51620  Biso   1.000  O
