data_image0
_cell_length_a       18.3034
_cell_length_b       18.3034
_cell_length_c       18.3034
_cell_angle_alpha    60
_cell_angle_beta     60
_cell_angle_gamma    60

_symmetry_space_group_name_H-M    "P 1"
_symmetry_int_tables_number       1

loop_
  _symmetry_equiv_pos_as_xyz
  'x, y, z'

loop_
  _atom_site_label
  _atom_site_occupancy
  _atom_site_fract_x
  _atom_site_fract_y
  _atom_site_fract_z
  _atom_site_thermal_displace_type
  _atom_site_B_iso_or_equiv
  _atom_site_type_symbol
  Zn1      1.0000 0.29349  0.29350  0.29350  Biso   1.000  Zn
  Zn2      1.0000 0.29349  0.29350  0.11951  Biso   1.000  Zn
  Zn3      1.0000 0.29349  0.11951  0.29350  Biso   1.000  Zn
  Zn4      1.0000 0.11950  0.29350  0.29350  Biso   1.000  Zn
  Zn5      1.0000 0.70651  0.70650  0.70650  Biso   1.000  Zn
  Zn6      1.0000 0.70651  0.70650  0.88049  Biso   1.000  Zn
  Zn7      1.0000 0.88050  0.70650  0.70650  Biso   1.000  Zn
  Zn8      1.0000 0.70651  0.88049  0.70650  Biso   1.000  Zn
  H1       1.0000 0.45470  0.45470  0.15630  Biso   1.000  H
  H2       1.0000 0.45470  0.45470  0.93430  Biso   1.000  H
  H3       1.0000 0.15630  0.93430  0.45470  Biso   1.000  H
  H4       1.0000 0.93430  0.15630  0.45470  Biso   1.000  H
  H5       1.0000 0.45470  0.15630  0.93430  Biso   1.000  H
  H6       1.0000 0.45470  0.93430  0.15630  Biso   1.000  H
  H7       1.0000 0.15630  0.45470  0.45470  Biso   1.000  H
  H8       1.0000 0.93430  0.45470  0.45470  Biso   1.000  H
  H9       1.0000 0.45470  0.93430  0.45470  Biso   1.000  H
  H10      1.0000 0.45470  0.15630  0.45470  Biso   1.000  H
  H11      1.0000 0.15630  0.45470  0.93430  Biso   1.000  H
  H12      1.0000 0.93430  0.45470  0.15630  Biso   1.000  H
  H13      1.0000 0.54530  0.54530  0.84370  Biso   1.000  H
  H14      1.0000 0.54530  0.54530  0.06570  Biso   1.000  H
  H15      1.0000 0.06570  0.84370  0.54530  Biso   1.000  H
  H16      1.0000 0.84370  0.06570  0.54530  Biso   1.000  H
  H17      1.0000 0.84370  0.54530  0.06570  Biso   1.000  H
  H18      1.0000 0.06570  0.54530  0.84370  Biso   1.000  H
  H19      1.0000 0.54530  0.84370  0.54530  Biso   1.000  H
  H20      1.0000 0.54530  0.06570  0.54530  Biso   1.000  H
  H21      1.0000 0.06570  0.54530  0.54530  Biso   1.000  H
  H22      1.0000 0.84370  0.54530  0.54530  Biso   1.000  H
  H23      1.0000 0.54530  0.84370  0.06570  Biso   1.000  H
  H24      1.0000 0.54530  0.06570  0.84370  Biso   1.000  H
  C1       1.0000 0.47355  0.47355  0.09143  Biso   1.000  C
  C2       1.0000 0.47355  0.47355  0.96147  Biso   1.000  C
  C3       1.0000 0.09143  0.96147  0.47355  Biso   1.000  C
  C4       1.0000 0.96147  0.09143  0.47355  Biso   1.000  C
  C5       1.0000 0.47355  0.09143  0.96147  Biso   1.000  C
  C6       1.0000 0.47355  0.96147  0.09143  Biso   1.000  C
  C7       1.0000 0.09143  0.47355  0.47355  Biso   1.000  C
  C8       1.0000 0.96147  0.47355  0.47355  Biso   1.000  C
  C9       1.0000 0.47355  0.96147  0.47355  Biso   1.000  C
  C10      1.0000 0.47355  0.09143  0.47355  Biso   1.000  C
  C11      1.0000 0.09143  0.47355  0.96147  Biso   1.000  C
  C12      1.0000 0.96147  0.47355  0.09143  Biso   1.000  C
  C13      1.0000 0.52645  0.52645  0.90857  Biso   1.000  C
  C14      1.0000 0.52645  0.52645  0.03853  Biso   1.000  C
  C15      1.0000 0.03853  0.90857  0.52645  Biso   1.000  C
  C16      1.0000 0.90857  0.03853  0.52645  Biso   1.000  C
  C17      1.0000 0.90857  0.52645  0.03853  Biso   1.000  C
  C18      1.0000 0.03853  0.52645  0.90857  Biso   1.000  C
  C19      1.0000 0.52645  0.90857  0.52645  Biso   1.000  C
  C20      1.0000 0.52645  0.03853  0.52645  Biso   1.000  C
  C21      1.0000 0.03853  0.52645  0.52645  Biso   1.000  C
  C22      1.0000 0.90857  0.52645  0.52645  Biso   1.000  C
  C23      1.0000 0.52645  0.90857  0.03853  Biso   1.000  C
  C24      1.0000 0.52645  0.03853  0.90857  Biso   1.000  C
  C25      1.0000 0.38830  0.38830  0.11170  Biso   1.000  C
  C26      1.0000 0.44623  0.44623  0.05377  Biso   1.000  C
  C27      1.0000 0.11170  0.11170  0.38830  Biso   1.000  C
  C28      1.0000 0.05377  0.05377  0.44623  Biso   1.000  C
  C29      1.0000 0.38830  0.11170  0.11170  Biso   1.000  C
  C30      1.0000 0.44623  0.05377  0.05377  Biso   1.000  C
  C31      1.0000 0.11170  0.38830  0.38830  Biso   1.000  C
  C32      1.0000 0.05377  0.44623  0.44623  Biso   1.000  C
  C33      1.0000 0.38830  0.11170  0.38830  Biso   1.000  C
  C34      1.0000 0.44623  0.05377  0.44623  Biso   1.000  C
  C35      1.0000 0.11170  0.38830  0.11170  Biso   1.000  C
  C36      1.0000 0.05377  0.44623  0.05377  Biso   1.000  C
  C37      1.0000 0.61170  0.61170  0.88830  Biso   1.000  C
  C38      1.0000 0.55377  0.55377  0.94623  Biso   1.000  C
  C39      1.0000 0.88830  0.88830  0.61170  Biso   1.000  C
  C40      1.0000 0.94623  0.94623  0.55377  Biso   1.000  C
  C41      1.0000 0.88830  0.61170  0.88830  Biso   1.000  C
  C42      1.0000 0.94623  0.55377  0.94623  Biso   1.000  C
  C43      1.0000 0.61170  0.88830  0.61170  Biso   1.000  C
  C44      1.0000 0.55377  0.94623  0.55377  Biso   1.000  C
  C45      1.0000 0.88830  0.61170  0.61170  Biso   1.000  C
  C46      1.0000 0.94623  0.55377  0.55377  Biso   1.000  C
  C47      1.0000 0.61170  0.88830  0.88830  Biso   1.000  C
  C48      1.0000 0.55377  0.94623  0.94623  Biso   1.000  C
  O1       1.0000 0.36613  0.36613  0.19527  Biso   1.000  O
  O2       1.0000 0.36613  0.36613  0.07247  Biso   1.000  O
  O3       1.0000 0.19527  0.07247  0.36613  Biso   1.000  O
  O4       1.0000 0.07247  0.19527  0.36613  Biso   1.000  O
  O5       1.0000 0.36613  0.19527  0.07247  Biso   1.000  O
  O6       1.0000 0.36613  0.07247  0.19527  Biso   1.000  O
  O7       1.0000 0.19527  0.36613  0.36613  Biso   1.000  O
  O8       1.0000 0.07247  0.36613  0.36613  Biso   1.000  O
  O9       1.0000 0.36613  0.07247  0.36613  Biso   1.000  O
  O10      1.0000 0.36613  0.19527  0.36613  Biso   1.000  O
  O11      1.0000 0.19527  0.36613  0.07247  Biso   1.000  O
  O12      1.0000 0.07247  0.36613  0.19527  Biso   1.000  O
  O13      1.0000 0.63387  0.63387  0.80473  Biso   1.000  O
  O14      1.0000 0.63387  0.63387  0.92753  Biso   1.000  O
  O15      1.0000 0.92753  0.80473  0.63387  Biso   1.000  O
  O16      1.0000 0.80473  0.92753  0.63387  Biso   1.000  O
  O17      1.0000 0.80473  0.63387  0.92753  Biso   1.000  O
  O18      1.0000 0.92753  0.63387  0.80473  Biso   1.000  O
  O19      1.0000 0.63387  0.80473  0.63387  Biso   1.000  O
  O20      1.0000 0.63387  0.92753  0.63387  Biso   1.000  O
  O21      1.0000 0.92753  0.63387  0.63387  Biso   1.000  O
  O22      1.0000 0.80473  0.63387  0.63387  Biso   1.000  O
  O23      1.0000 0.63387  0.80473  0.92753  Biso   1.000  O
  O24      1.0000 0.63387  0.92753  0.80473  Biso   1.000  O
  O25      1.0000 0.25000  0.25000  0.25000  Biso   1.000  O
  O26      1.0000 0.75000  0.75000  0.75000  Biso   1.000  O
  Zn9      1.0000 0.50183  0.51934  0.33457  Biso   1.000  Zn
  Zn10     1.0000 0.50183  0.51934  0.50827  Biso   1.000  Zn
  Zn11     1.0000 0.32813  0.51934  0.50827  Biso   1.000  Zn
  Zn12     1.0000 0.50183  0.34564  0.50827  Biso   1.000  Zn
  Zn13     1.0000 0.91452  0.93201  0.09465  Biso   1.000  Zn
  Zn14     1.0000 0.91452  0.93201  0.92094  Biso   1.000  Zn
  Zn15     1.0000 0.91452  0.10572  0.92094  Biso   1.000  Zn
  Zn16     1.0000 0.08823  0.93201  0.92094  Biso   1.000  Zn
  H25      1.0000 0.66322  0.68072  0.14940  Biso   1.000  H
  H26      1.0000 0.66322  0.68072  0.36973  Biso   1.000  H
  H27      1.0000 0.14297  0.38081  0.66965  Biso   1.000  H
  H28      1.0000 0.36330  0.16047  0.66965  Biso   1.000  H
  H29      1.0000 0.66322  0.16047  0.36973  Biso   1.000  H
  H30      1.0000 0.66322  0.38081  0.14940  Biso   1.000  H
  H31      1.0000 0.14297  0.68072  0.66965  Biso   1.000  H
  H32      1.0000 0.36330  0.68072  0.66965  Biso   1.000  H
  H33      1.0000 0.66322  0.38081  0.66965  Biso   1.000  H
  H34      1.0000 0.66322  0.16047  0.66965  Biso   1.000  H
  H35      1.0000 0.14297  0.68072  0.36973  Biso   1.000  H
  H36      1.0000 0.36330  0.68072  0.14940  Biso   1.000  H
  H37      1.0000 0.75314  0.77064  0.27982  Biso   1.000  H
  H38      1.0000 0.75314  0.77064  0.05948  Biso   1.000  H
  H39      1.0000 0.05305  0.29089  0.75957  Biso   1.000  H
  H40      1.0000 0.27339  0.07055  0.75957  Biso   1.000  H
  H41      1.0000 0.27339  0.77064  0.05948  Biso   1.000  H
  H42      1.0000 0.05305  0.77064  0.27982  Biso   1.000  H
  H43      1.0000 0.75314  0.29089  0.75957  Biso   1.000  H
  H44      1.0000 0.75314  0.07055  0.75957  Biso   1.000  H
  H45      1.0000 0.05305  0.77064  0.75957  Biso   1.000  H
  H46      1.0000 0.27339  0.77064  0.75957  Biso   1.000  H
  H47      1.0000 0.75314  0.29089  0.05948  Biso   1.000  H
  H48      1.0000 0.75314  0.07055  0.27982  Biso   1.000  H
  C49      1.0000 0.68142  0.69892  0.17629  Biso   1.000  C
  C50      1.0000 0.68142  0.69892  0.30643  Biso   1.000  C
  C51      1.0000 0.16986  0.31751  0.68785  Biso   1.000  C
  C52      1.0000 0.30000  0.18736  0.68785  Biso   1.000  C
  C53      1.0000 0.68142  0.18736  0.30643  Biso   1.000  C
  C54      1.0000 0.68142  0.31751  0.17629  Biso   1.000  C
  C55      1.0000 0.16986  0.69892  0.68785  Biso   1.000  C
  C56      1.0000 0.30000  0.69892  0.68785  Biso   1.000  C
  C57      1.0000 0.68142  0.31751  0.68785  Biso   1.000  C
  C58      1.0000 0.68142  0.18736  0.68785  Biso   1.000  C
  C59      1.0000 0.16986  0.69892  0.30643  Biso   1.000  C
  C60      1.0000 0.30000  0.69892  0.17629  Biso   1.000  C
  C61      1.0000 0.73493  0.75243  0.25292  Biso   1.000  C
  C62      1.0000 0.73493  0.75243  0.12278  Biso   1.000  C
  C63      1.0000 0.11635  0.26400  0.74136  Biso   1.000  C
  C64      1.0000 0.24649  0.13385  0.74136  Biso   1.000  C
  C65      1.0000 0.24649  0.75243  0.12278  Biso   1.000  C
  C66      1.0000 0.11635  0.75243  0.25292  Biso   1.000  C
  C67      1.0000 0.73493  0.26400  0.74136  Biso   1.000  C
  C68      1.0000 0.73493  0.13385  0.74136  Biso   1.000  C
  C69      1.0000 0.11635  0.75243  0.74136  Biso   1.000  C
  C70      1.0000 0.24649  0.75243  0.74136  Biso   1.000  C
  C71      1.0000 0.73493  0.26400  0.12278  Biso   1.000  C
  C72      1.0000 0.73493  0.13385  0.25292  Biso   1.000  C
  C73      1.0000 0.59668  0.61418  0.32658  Biso   1.000  C
  C74      1.0000 0.65462  0.67212  0.26864  Biso   1.000  C
  C75      1.0000 0.32015  0.33765  0.60311  Biso   1.000  C
  C76      1.0000 0.26221  0.27971  0.66105  Biso   1.000  C
  C77      1.0000 0.59668  0.33765  0.32658  Biso   1.000  C
  C78      1.0000 0.65462  0.27971  0.26864  Biso   1.000  C
  C79      1.0000 0.32015  0.61418  0.60311  Biso   1.000  C
  C80      1.0000 0.26221  0.67212  0.66105  Biso   1.000  C
  C81      1.0000 0.59668  0.33765  0.60311  Biso   1.000  C
  C82      1.0000 0.65462  0.27971  0.66105  Biso   1.000  C
  C83      1.0000 0.32015  0.61418  0.32658  Biso   1.000  C
  C84      1.0000 0.26221  0.67212  0.26864  Biso   1.000  C
  C85      1.0000 0.81967  0.83717  0.10264  Biso   1.000  C
  C86      1.0000 0.76174  0.77924  0.16058  Biso   1.000  C
  C87      1.0000 0.09621  0.11371  0.82610  Biso   1.000  C
  C88      1.0000 0.15415  0.17165  0.76817  Biso   1.000  C
  C89      1.0000 0.09621  0.83717  0.10264  Biso   1.000  C
  C90      1.0000 0.15415  0.77924  0.16058  Biso   1.000  C
  C91      1.0000 0.81967  0.11371  0.82610  Biso   1.000  C
  C92      1.0000 0.76174  0.17165  0.76817  Biso   1.000  C
  C93      1.0000 0.09621  0.83717  0.82610  Biso   1.000  C
  C94      1.0000 0.15415  0.77924  0.76817  Biso   1.000  C
  C95      1.0000 0.81967  0.11371  0.10264  Biso   1.000  C
  C96      1.0000 0.76174  0.17165  0.16058  Biso   1.000  C
  O27      1.0000 0.45841  0.47592  0.46484  Biso   1.000  O
  O28      1.0000 0.95794  0.97544  0.96437  Biso   1.000  O
  O29      1.0000 0.57442  0.59193  0.28799  Biso   1.000  O
  O30      1.0000 0.57442  0.59193  0.40968  Biso   1.000  O
  O31      1.0000 0.28156  0.42075  0.58085  Biso   1.000  O
  O32      1.0000 0.40325  0.29906  0.58085  Biso   1.000  O
  O33      1.0000 0.57442  0.29906  0.40968  Biso   1.000  O
  O34      1.0000 0.57442  0.42075  0.28799  Biso   1.000  O
  O35      1.0000 0.28156  0.59193  0.58085  Biso   1.000  O
  O36      1.0000 0.40325  0.59193  0.58085  Biso   1.000  O
  O37      1.0000 0.57442  0.42075  0.58085  Biso   1.000  O
  O38      1.0000 0.57442  0.29906  0.58085  Biso   1.000  O
  O39      1.0000 0.28156  0.59193  0.40968  Biso   1.000  O
  O40      1.0000 0.40325  0.59193  0.28799  Biso   1.000  O
  O41      1.0000 0.84193  0.85943  0.14122  Biso   1.000  O
  O42      1.0000 0.84193  0.85943  0.01954  Biso   1.000  O
  O43      1.0000 0.01311  0.15230  0.84836  Biso   1.000  O
  O44      1.0000 0.13479  0.03061  0.84836  Biso   1.000  O
  O45      1.0000 0.13479  0.85943  0.01954  Biso   1.000  O
  O46      1.0000 0.01311  0.85943  0.14122  Biso   1.000  O
  O47      1.0000 0.84193  0.15230  0.84836  Biso   1.000  O
  O48      1.0000 0.84193  0.03061  0.84836  Biso   1.000  O
  O49      1.0000 0.01311  0.85943  0.84836  Biso   1.000  O
  O50      1.0000 0.13479  0.85943  0.84836  Biso   1.000  O
  O51      1.0000 0.84193  0.15230  0.01954  Biso   1.000  O
