data_image0
_cell_length_a       18.283
_cell_length_b       18.283
_cell_length_c       18.283
_cell_angle_alpha    60
_cell_angle_beta     60
_cell_angle_gamma    60

_symmetry_space_group_name_H-M    "P 1"
_symmetry_int_tables_number       1

loop_
  _symmetry_equiv_pos_as_xyz
  'x, y, z'

loop_
  _atom_site_label
  _atom_site_occupancy
  _atom_site_fract_x
  _atom_site_fract_y
  _atom_site_fract_z
  _atom_site_thermal_displace_type
  _atom_site_B_iso_or_equiv
  _atom_site_type_symbol
  Zn1      1.0000 0.20670  0.37990  0.20670  Biso   1.000  Zn
  Zn2      1.0000 0.37990  0.20670  0.20670  Biso   1.000  Zn
  Zn3      1.0000 0.20670  0.20670  0.20670  Biso   1.000  Zn
  Zn4      1.0000 0.20670  0.20670  0.37990  Biso   1.000  Zn
  Zn5      1.0000 0.62010  0.79330  0.79330  Biso   1.000  Zn
  Zn6      1.0000 0.79330  0.62010  0.79330  Biso   1.000  Zn
  Zn7      1.0000 0.79330  0.79330  0.79330  Biso   1.000  Zn
  Zn8      1.0000 0.79330  0.79330  0.62010  Biso   1.000  Zn
  H1       1.0000 0.04940  0.56380  0.04940  Biso   1.000  H
  H2       1.0000 0.56380  0.04940  0.33740  Biso   1.000  H
  H3       1.0000 0.04940  0.33740  0.04940  Biso   1.000  H
  H4       1.0000 0.33740  0.04940  0.56380  Biso   1.000  H
  H5       1.0000 0.04940  0.04940  0.33740  Biso   1.000  H
  H6       1.0000 0.56380  0.33740  0.04940  Biso   1.000  H
  H7       1.0000 0.04940  0.04940  0.56380  Biso   1.000  H
  H8       1.0000 0.33740  0.56380  0.04940  Biso   1.000  H
  H9       1.0000 0.04940  0.33740  0.56380  Biso   1.000  H
  H10      1.0000 0.56380  0.04940  0.04940  Biso   1.000  H
  H11      1.0000 0.04940  0.56380  0.33740  Biso   1.000  H
  H12      1.0000 0.33740  0.04940  0.04940  Biso   1.000  H
  H13      1.0000 0.43620  0.95060  0.95060  Biso   1.000  H
  H14      1.0000 0.95060  0.43620  0.66260  Biso   1.000  H
  H15      1.0000 0.66260  0.95060  0.95060  Biso   1.000  H
  H16      1.0000 0.95060  0.66260  0.43620  Biso   1.000  H
  H17      1.0000 0.95060  0.95060  0.66260  Biso   1.000  H
  H18      1.0000 0.66260  0.43620  0.95060  Biso   1.000  H
  H19      1.0000 0.95060  0.95060  0.43620  Biso   1.000  H
  H20      1.0000 0.43620  0.66260  0.95060  Biso   1.000  H
  H21      1.0000 0.66260  0.95060  0.43620  Biso   1.000  H
  H22      1.0000 0.95060  0.43620  0.95060  Biso   1.000  H
  H23      1.0000 0.43620  0.95060  0.66260  Biso   1.000  H
  H24      1.0000 0.95060  0.66260  0.95060  Biso   1.000  H
  C1       1.0000 0.02700  0.53820  0.02700  Biso   1.000  C
  C2       1.0000 0.53820  0.02700  0.40780  Biso   1.000  C
  C3       1.0000 0.02700  0.40780  0.02700  Biso   1.000  C
  C4       1.0000 0.40780  0.02700  0.53820  Biso   1.000  C
  C5       1.0000 0.02700  0.02700  0.40780  Biso   1.000  C
  C6       1.0000 0.53820  0.40780  0.02700  Biso   1.000  C
  C7       1.0000 0.02700  0.02700  0.53820  Biso   1.000  C
  C8       1.0000 0.40780  0.53820  0.02700  Biso   1.000  C
  C9       1.0000 0.02700  0.40780  0.53820  Biso   1.000  C
  C10      1.0000 0.53820  0.02700  0.02700  Biso   1.000  C
  C11      1.0000 0.02700  0.53820  0.40780  Biso   1.000  C
  C12      1.0000 0.40780  0.02700  0.02700  Biso   1.000  C
  C13      1.0000 0.46180  0.97300  0.97300  Biso   1.000  C
  C14      1.0000 0.97300  0.46180  0.59220  Biso   1.000  C
  C15      1.0000 0.59220  0.97300  0.97300  Biso   1.000  C
  C16      1.0000 0.97300  0.59220  0.46180  Biso   1.000  C
  C17      1.0000 0.97300  0.97300  0.59220  Biso   1.000  C
  C18      1.0000 0.59220  0.46180  0.97300  Biso   1.000  C
  C19      1.0000 0.97300  0.97300  0.46180  Biso   1.000  C
  C20      1.0000 0.46180  0.59220  0.97300  Biso   1.000  C
  C21      1.0000 0.59220  0.97300  0.46180  Biso   1.000  C
  C22      1.0000 0.97300  0.46180  0.97300  Biso   1.000  C
  C23      1.0000 0.46180  0.97300  0.59220  Biso   1.000  C
  C24      1.0000 0.97300  0.59220  0.97300  Biso   1.000  C
  C25      1.0000 0.11070  0.38930  0.11070  Biso   1.000  C
  C26      1.0000 0.05420  0.44580  0.05420  Biso   1.000  C
  C27      1.0000 0.38930  0.11070  0.38930  Biso   1.000  C
  C28      1.0000 0.44580  0.05420  0.44580  Biso   1.000  C
  C29      1.0000 0.11070  0.11070  0.38930  Biso   1.000  C
  C30      1.0000 0.05420  0.05420  0.44580  Biso   1.000  C
  C31      1.0000 0.38930  0.38930  0.11070  Biso   1.000  C
  C32      1.0000 0.44580  0.44580  0.05420  Biso   1.000  C
  C33      1.0000 0.11070  0.38930  0.38930  Biso   1.000  C
  C34      1.0000 0.05420  0.44580  0.44580  Biso   1.000  C
  C35      1.0000 0.38930  0.11070  0.11070  Biso   1.000  C
  C36      1.0000 0.44580  0.05420  0.05420  Biso   1.000  C
  C37      1.0000 0.61070  0.88930  0.88930  Biso   1.000  C
  C38      1.0000 0.55420  0.94580  0.94580  Biso   1.000  C
  C39      1.0000 0.88930  0.61070  0.61070  Biso   1.000  C
  C40      1.0000 0.94580  0.55420  0.55420  Biso   1.000  C
  C41      1.0000 0.88930  0.88930  0.61070  Biso   1.000  C
  C42      1.0000 0.94580  0.94580  0.55420  Biso   1.000  C
  C43      1.0000 0.61070  0.61070  0.88930  Biso   1.000  C
  C44      1.0000 0.55420  0.55420  0.94580  Biso   1.000  C
  C45      1.0000 0.61070  0.88930  0.61070  Biso   1.000  C
  C46      1.0000 0.55420  0.94580  0.55420  Biso   1.000  C
  C47      1.0000 0.88930  0.61070  0.88930  Biso   1.000  C
  C48      1.0000 0.94580  0.55420  0.94580  Biso   1.000  C
  O1       1.0000 0.25000  0.25000  0.25000  Biso   1.000  O
  O2       1.0000 0.75000  0.75000  0.75000  Biso   1.000  O
  O3       1.0000 0.13430  0.42670  0.13430  Biso   1.000  O
  O4       1.0000 0.42670  0.13430  0.30470  Biso   1.000  O
  O5       1.0000 0.13430  0.30470  0.13430  Biso   1.000  O
  O6       1.0000 0.30470  0.13430  0.42670  Biso   1.000  O
  O7       1.0000 0.13430  0.13430  0.30470  Biso   1.000  O
  O8       1.0000 0.42670  0.30470  0.13430  Biso   1.000  O
  O9       1.0000 0.13430  0.13430  0.42670  Biso   1.000  O
  O10      1.0000 0.30470  0.42670  0.13430  Biso   1.000  O
  O11      1.0000 0.13430  0.30470  0.42670  Biso   1.000  O
  O12      1.0000 0.42670  0.13430  0.13430  Biso   1.000  O
  O13      1.0000 0.13430  0.42670  0.30470  Biso   1.000  O
  O14      1.0000 0.30470  0.13430  0.13430  Biso   1.000  O
  O15      1.0000 0.57330  0.86570  0.86570  Biso   1.000  O
  O16      1.0000 0.86570  0.57330  0.69530  Biso   1.000  O
  O17      1.0000 0.69530  0.86570  0.86570  Biso   1.000  O
  O18      1.0000 0.86570  0.69530  0.57330  Biso   1.000  O
  O19      1.0000 0.86570  0.86570  0.69530  Biso   1.000  O
  O20      1.0000 0.69530  0.57330  0.86570  Biso   1.000  O
  O21      1.0000 0.86570  0.86570  0.57330  Biso   1.000  O
  O22      1.0000 0.57330  0.69530  0.86570  Biso   1.000  O
  O23      1.0000 0.69530  0.86570  0.57330  Biso   1.000  O
  O24      1.0000 0.86570  0.57330  0.86570  Biso   1.000  O
  O25      1.0000 0.57330  0.86570  0.69530  Biso   1.000  O
  O26      1.0000 0.86570  0.69530  0.86570  Biso   1.000  O
  Zn9      1.0000 0.50239  0.51992  0.33494  Biso   1.000  Zn
  Zn10     1.0000 0.50239  0.51992  0.50884  Biso   1.000  Zn
  Zn11     1.0000 0.32849  0.51992  0.50884  Biso   1.000  Zn
  Zn12     1.0000 0.50239  0.34602  0.50884  Biso   1.000  Zn
  Zn13     1.0000 0.91554  0.93305  0.09587  Biso   1.000  Zn
  Zn14     1.0000 0.91554  0.93305  0.92197  Biso   1.000  Zn
  Zn15     1.0000 0.91554  0.10695  0.92197  Biso   1.000  Zn
  Zn16     1.0000 0.08944  0.93305  0.92197  Biso   1.000  Zn
  H25      1.0000 0.66396  0.68148  0.15068  Biso   1.000  H
  H26      1.0000 0.66396  0.68148  0.37015  Biso   1.000  H
  H27      1.0000 0.14424  0.38123  0.67040  Biso   1.000  H
  H28      1.0000 0.36371  0.16176  0.67040  Biso   1.000  H
  H29      1.0000 0.66396  0.16176  0.37015  Biso   1.000  H
  H30      1.0000 0.66396  0.38123  0.15068  Biso   1.000  H
  H31      1.0000 0.14424  0.68148  0.67040  Biso   1.000  H
  H32      1.0000 0.36371  0.68148  0.67040  Biso   1.000  H
  H33      1.0000 0.66396  0.38123  0.67040  Biso   1.000  H
  H34      1.0000 0.66396  0.16176  0.67040  Biso   1.000  H
  H35      1.0000 0.14424  0.68148  0.37015  Biso   1.000  H
  H36      1.0000 0.36371  0.68148  0.15068  Biso   1.000  H
  H37      1.0000 0.75398  0.77150  0.28013  Biso   1.000  H
  H38      1.0000 0.75398  0.77150  0.06066  Biso   1.000  H
  H39      1.0000 0.05423  0.29121  0.76041  Biso   1.000  H
  H40      1.0000 0.27369  0.07175  0.76041  Biso   1.000  H
  H41      1.0000 0.27369  0.77150  0.06066  Biso   1.000  H
  H42      1.0000 0.05423  0.77150  0.28013  Biso   1.000  H
  H43      1.0000 0.75398  0.29121  0.76041  Biso   1.000  H
  H44      1.0000 0.75398  0.07175  0.76041  Biso   1.000  H
  H45      1.0000 0.05423  0.77150  0.76041  Biso   1.000  H
  H46      1.0000 0.27369  0.77150  0.76041  Biso   1.000  H
  H47      1.0000 0.75398  0.29121  0.06066  Biso   1.000  H
  H48      1.0000 0.75398  0.07175  0.28013  Biso   1.000  H
  C49      1.0000 0.68218  0.69970  0.17760  Biso   1.000  C
  C50      1.0000 0.68218  0.69970  0.30678  Biso   1.000  C
  C51      1.0000 0.17117  0.31786  0.68862  Biso   1.000  C
  C52      1.0000 0.30034  0.18869  0.68862  Biso   1.000  C
  C53      1.0000 0.68218  0.18869  0.30678  Biso   1.000  C
  C54      1.0000 0.68218  0.31786  0.17760  Biso   1.000  C
  C55      1.0000 0.17117  0.69970  0.68862  Biso   1.000  C
  C56      1.0000 0.30034  0.69970  0.68862  Biso   1.000  C
  C57      1.0000 0.68218  0.31786  0.68862  Biso   1.000  C
  C58      1.0000 0.68218  0.18869  0.68862  Biso   1.000  C
  C59      1.0000 0.17117  0.69970  0.30678  Biso   1.000  C
  C60      1.0000 0.30034  0.69970  0.17760  Biso   1.000  C
  C61      1.0000 0.73575  0.75327  0.25321  Biso   1.000  C
  C62      1.0000 0.73575  0.75327  0.12403  Biso   1.000  C
  C63      1.0000 0.11760  0.26429  0.74219  Biso   1.000  C
  C64      1.0000 0.24677  0.13512  0.74219  Biso   1.000  C
  C65      1.0000 0.24677  0.75327  0.12403  Biso   1.000  C
  C66      1.0000 0.11760  0.75327  0.25321  Biso   1.000  C
  C67      1.0000 0.73575  0.26429  0.74219  Biso   1.000  C
  C68      1.0000 0.73575  0.13512  0.74219  Biso   1.000  C
  C69      1.0000 0.11760  0.75327  0.74219  Biso   1.000  C
  C70      1.0000 0.24677  0.75327  0.74219  Biso   1.000  C
  C71      1.0000 0.73575  0.26429  0.12403  Biso   1.000  C
  C72      1.0000 0.73575  0.13512  0.25321  Biso   1.000  C
  C73      1.0000 0.59735  0.61487  0.32694  Biso   1.000  C
  C74      1.0000 0.65535  0.67287  0.26894  Biso   1.000  C
  C75      1.0000 0.32050  0.33802  0.60379  Biso   1.000  C
  C76      1.0000 0.26250  0.28002  0.66179  Biso   1.000  C
  C77      1.0000 0.59735  0.33802  0.32694  Biso   1.000  C
  C78      1.0000 0.65535  0.28002  0.26894  Biso   1.000  C
  C79      1.0000 0.32050  0.61487  0.60379  Biso   1.000  C
  C80      1.0000 0.26250  0.67287  0.66179  Biso   1.000  C
  C81      1.0000 0.59735  0.33802  0.60379  Biso   1.000  C
  C82      1.0000 0.65535  0.28002  0.66179  Biso   1.000  C
  C83      1.0000 0.32050  0.61487  0.32694  Biso   1.000  C
  C84      1.0000 0.26250  0.67287  0.26894  Biso   1.000  C
  C85      1.0000 0.82059  0.83811  0.10387  Biso   1.000  C
  C86      1.0000 0.76259  0.78011  0.16187  Biso   1.000  C
  C87      1.0000 0.09743  0.11495  0.82702  Biso   1.000  C
  C88      1.0000 0.15543  0.17295  0.76902  Biso   1.000  C
  C89      1.0000 0.09743  0.83811  0.10387  Biso   1.000  C
  C90      1.0000 0.15543  0.78011  0.16187  Biso   1.000  C
  C91      1.0000 0.82059  0.11495  0.82702  Biso   1.000  C
  C92      1.0000 0.76259  0.17295  0.76902  Biso   1.000  C
  C93      1.0000 0.09743  0.83811  0.82702  Biso   1.000  C
  C94      1.0000 0.15543  0.78011  0.76902  Biso   1.000  C
  C95      1.0000 0.82059  0.11495  0.10387  Biso   1.000  C
  C96      1.0000 0.76259  0.17295  0.16187  Biso   1.000  C
  O27      1.0000 0.45893  0.47645  0.46536  Biso   1.000  O
  O28      1.0000 0.95901  0.97653  0.96545  Biso   1.000  O
  O29      1.0000 0.57507  0.59259  0.28831  Biso   1.000  O
  O30      1.0000 0.57507  0.59259  0.41013  Biso   1.000  O
  O31      1.0000 0.28188  0.42122  0.58150  Biso   1.000  O
  O32      1.0000 0.40370  0.29940  0.58150  Biso   1.000  O
  O33      1.0000 0.57507  0.29940  0.41013  Biso   1.000  O
  O34      1.0000 0.57507  0.42122  0.28831  Biso   1.000  O
  O35      1.0000 0.28188  0.59259  0.58150  Biso   1.000  O
  O36      1.0000 0.40370  0.59259  0.58150  Biso   1.000  O
  O37      1.0000 0.57507  0.42122  0.58150  Biso   1.000  O
  O38      1.0000 0.57507  0.29940  0.58150  Biso   1.000  O
  O39      1.0000 0.28188  0.59259  0.41013  Biso   1.000  O
  O40      1.0000 0.40370  0.59259  0.28831  Biso   1.000  O
  O41      1.0000 0.84287  0.86039  0.14250  Biso   1.000  O
  O42      1.0000 0.84287  0.86039  0.02068  Biso   1.000  O
  O43      1.0000 0.01424  0.15358  0.84931  Biso   1.000  O
  O44      1.0000 0.13606  0.03176  0.84931  Biso   1.000  O
  O45      1.0000 0.13606  0.86039  0.02068  Biso   1.000  O
  O46      1.0000 0.01424  0.86039  0.14250  Biso   1.000  O
  O47      1.0000 0.84287  0.15358  0.84931  Biso   1.000  O
  O48      1.0000 0.84287  0.03176  0.84931  Biso   1.000  O
  O49      1.0000 0.01424  0.86039  0.84931  Biso   1.000  O
  O50      1.0000 0.13606  0.86039  0.84931  Biso   1.000  O
  O51      1.0000 0.84287  0.15358  0.02068  Biso   1.000  O
