data_image0
_cell_length_a       18.283
_cell_length_b       18.283
_cell_length_c       18.283
_cell_angle_alpha    60
_cell_angle_beta     60
_cell_angle_gamma    60

_symmetry_space_group_name_H-M    "P 1"
_symmetry_int_tables_number       1

loop_
  _symmetry_equiv_pos_as_xyz
  'x, y, z'

loop_
  _atom_site_label
  _atom_site_occupancy
  _atom_site_fract_x
  _atom_site_fract_y
  _atom_site_fract_z
  _atom_site_thermal_displace_type
  _atom_site_B_iso_or_equiv
  _atom_site_type_symbol
  C1       1.0000 0.20670  0.37990  0.20670  Biso   1.000  C
  C2       1.0000 0.37990  0.20670  0.20670  Biso   1.000  C
  C3       1.0000 0.20670  0.20670  0.20670  Biso   1.000  C
  C4       1.0000 0.20670  0.20670  0.37990  Biso   1.000  C
  C5       1.0000 0.62010  0.79330  0.79330  Biso   1.000  C
  C6       1.0000 0.79330  0.62010  0.79330  Biso   1.000  C
  C7       1.0000 0.79330  0.79330  0.79330  Biso   1.000  C
  C8       1.0000 0.79330  0.79330  0.62010  Biso   1.000  C
  C9       1.0000 0.04940  0.56380  0.04940  Biso   1.000  C
  C10      1.0000 0.56380  0.04940  0.33740  Biso   1.000  C
  C11      1.0000 0.04940  0.33740  0.04940  Biso   1.000  C
  C12      1.0000 0.33740  0.04940  0.56380  Biso   1.000  C
  C13      1.0000 0.04940  0.04940  0.33740  Biso   1.000  C
  C14      1.0000 0.56380  0.33740  0.04940  Biso   1.000  C
  C15      1.0000 0.04940  0.04940  0.56380  Biso   1.000  C
  C16      1.0000 0.33740  0.56380  0.04940  Biso   1.000  C
  C17      1.0000 0.04940  0.33740  0.56380  Biso   1.000  C
  C18      1.0000 0.56380  0.04940  0.04940  Biso   1.000  C
  C19      1.0000 0.04940  0.56380  0.33740  Biso   1.000  C
  C20      1.0000 0.33740  0.04940  0.04940  Biso   1.000  C
  C21      1.0000 0.43620  0.95060  0.95060  Biso   1.000  C
  C22      1.0000 0.95060  0.43620  0.66260  Biso   1.000  C
  C23      1.0000 0.66260  0.95060  0.95060  Biso   1.000  C
  C24      1.0000 0.95060  0.66260  0.43620  Biso   1.000  C
  C25      1.0000 0.95060  0.95060  0.66260  Biso   1.000  C
  C26      1.0000 0.66260  0.43620  0.95060  Biso   1.000  C
  C27      1.0000 0.95060  0.95060  0.43620  Biso   1.000  C
  C28      1.0000 0.43620  0.66260  0.95060  Biso   1.000  C
  C29      1.0000 0.66260  0.95060  0.43620  Biso   1.000  C
  C30      1.0000 0.95060  0.43620  0.95060  Biso   1.000  C
  C31      1.0000 0.43620  0.95060  0.66260  Biso   1.000  C
  C32      1.0000 0.95060  0.66260  0.95060  Biso   1.000  C
  C33      1.0000 0.02700  0.53820  0.02700  Biso   1.000  C
  C34      1.0000 0.53820  0.02700  0.40780  Biso   1.000  C
  C35      1.0000 0.02700  0.40780  0.02700  Biso   1.000  C
  C36      1.0000 0.40780  0.02700  0.53820  Biso   1.000  C
  C37      1.0000 0.02700  0.02700  0.40780  Biso   1.000  C
  C38      1.0000 0.53820  0.40780  0.02700  Biso   1.000  C
  C39      1.0000 0.02700  0.02700  0.53820  Biso   1.000  C
  C40      1.0000 0.40780  0.53820  0.02700  Biso   1.000  C
  C41      1.0000 0.02700  0.40780  0.53820  Biso   1.000  C
  C42      1.0000 0.53820  0.02700  0.02700  Biso   1.000  C
  C43      1.0000 0.02700  0.53820  0.40780  Biso   1.000  C
  C44      1.0000 0.40780  0.02700  0.02700  Biso   1.000  C
  C45      1.0000 0.46180  0.97300  0.97300  Biso   1.000  C
  C46      1.0000 0.97300  0.46180  0.59220  Biso   1.000  C
  C47      1.0000 0.59220  0.97300  0.97300  Biso   1.000  C
  C48      1.0000 0.97300  0.59220  0.46180  Biso   1.000  C
  C49      1.0000 0.97300  0.97300  0.59220  Biso   1.000  C
  C50      1.0000 0.59220  0.46180  0.97300  Biso   1.000  C
  C51      1.0000 0.97300  0.97300  0.46180  Biso   1.000  C
  C52      1.0000 0.46180  0.59220  0.97300  Biso   1.000  C
  C53      1.0000 0.59220  0.97300  0.46180  Biso   1.000  C
  C54      1.0000 0.97300  0.46180  0.97300  Biso   1.000  C
  C55      1.0000 0.46180  0.97300  0.59220  Biso   1.000  C
  C56      1.0000 0.97300  0.59220  0.97300  Biso   1.000  C
  C57      1.0000 0.11070  0.38930  0.11070  Biso   1.000  C
  C58      1.0000 0.05420  0.44580  0.05420  Biso   1.000  C
  C59      1.0000 0.38930  0.11070  0.38930  Biso   1.000  C
  C60      1.0000 0.44580  0.05420  0.44580  Biso   1.000  C
  C61      1.0000 0.11070  0.11070  0.38930  Biso   1.000  C
  C62      1.0000 0.05420  0.05420  0.44580  Biso   1.000  C
  C63      1.0000 0.38930  0.38930  0.11070  Biso   1.000  C
  C64      1.0000 0.44580  0.44580  0.05420  Biso   1.000  C
  C65      1.0000 0.11070  0.38930  0.38930  Biso   1.000  C
  C66      1.0000 0.05420  0.44580  0.44580  Biso   1.000  C
  C67      1.0000 0.38930  0.11070  0.11070  Biso   1.000  C
  C68      1.0000 0.44580  0.05420  0.05420  Biso   1.000  C
  C69      1.0000 0.61070  0.88930  0.88930  Biso   1.000  C
  C70      1.0000 0.55420  0.94580  0.94580  Biso   1.000  C
  C71      1.0000 0.88930  0.61070  0.61070  Biso   1.000  C
  C72      1.0000 0.94580  0.55420  0.55420  Biso   1.000  C
  C73      1.0000 0.88930  0.88930  0.61070  Biso   1.000  C
  C74      1.0000 0.94580  0.94580  0.55420  Biso   1.000  C
  C75      1.0000 0.61070  0.61070  0.88930  Biso   1.000  C
  C76      1.0000 0.55420  0.55420  0.94580  Biso   1.000  C
  C77      1.0000 0.61070  0.88930  0.61070  Biso   1.000  C
  C78      1.0000 0.55420  0.94580  0.55420  Biso   1.000  C
  C79      1.0000 0.88930  0.61070  0.88930  Biso   1.000  C
  C80      1.0000 0.94580  0.55420  0.94580  Biso   1.000  C
  C81      1.0000 0.25000  0.25000  0.25000  Biso   1.000  C
  C82      1.0000 0.75000  0.75000  0.75000  Biso   1.000  C
  C83      1.0000 0.13430  0.42670  0.13430  Biso   1.000  C
  C84      1.0000 0.42670  0.13430  0.30470  Biso   1.000  C
  C85      1.0000 0.13430  0.30470  0.13430  Biso   1.000  C
  C86      1.0000 0.30470  0.13430  0.42670  Biso   1.000  C
  C87      1.0000 0.13430  0.13430  0.30470  Biso   1.000  C
  C88      1.0000 0.42670  0.30470  0.13430  Biso   1.000  C
  C89      1.0000 0.13430  0.13430  0.42670  Biso   1.000  C
  C90      1.0000 0.30470  0.42670  0.13430  Biso   1.000  C
  C91      1.0000 0.13430  0.30470  0.42670  Biso   1.000  C
  C92      1.0000 0.42670  0.13430  0.13430  Biso   1.000  C
  C93      1.0000 0.13430  0.42670  0.30470  Biso   1.000  C
  C94      1.0000 0.30470  0.13430  0.13430  Biso   1.000  C
  C95      1.0000 0.57330  0.86570  0.86570  Biso   1.000  C
  C96      1.0000 0.86570  0.57330  0.69530  Biso   1.000  C
  C97      1.0000 0.69530  0.86570  0.86570  Biso   1.000  C
  C98      1.0000 0.86570  0.69530  0.57330  Biso   1.000  C
  C99      1.0000 0.86570  0.86570  0.69530  Biso   1.000  C
  C100     1.0000 0.69530  0.57330  0.86570  Biso   1.000  C
  C101     1.0000 0.86570  0.86570  0.57330  Biso   1.000  C
  C102     1.0000 0.57330  0.69530  0.86570  Biso   1.000  C
  C103     1.0000 0.69530  0.86570  0.57330  Biso   1.000  C
  C104     1.0000 0.86570  0.57330  0.86570  Biso   1.000  C
  C105     1.0000 0.57330  0.86570  0.69530  Biso   1.000  C
  C106     1.0000 0.86570  0.69530  0.86570  Biso   1.000  C
  O1       1.0000 0.19113  0.82104  0.00000  Biso   1.000  O
  O2       1.0000 0.01071  0.82104  0.18042  Biso   1.000  O
  O3       1.0000 0.01071  0.00146  1.00000  Biso   1.000  O
  O4       1.0000 0.01071  0.82104  1.00000  Biso   1.000  O
  O5       1.0000 0.59232  0.41124  0.41841  Biso   1.000  O
  O6       1.0000 0.42053  0.41124  0.59020  Biso   1.000  O
  O7       1.0000 0.59232  0.41124  0.59020  Biso   1.000  O
  O8       1.0000 0.59232  0.23945  0.59020  Biso   1.000  O
  O9       1.0000 0.44934  0.57421  0.23545  Biso   1.000  O
  O10      1.0000 0.23758  0.57421  0.44722  Biso   1.000  O
  O11      1.0000 0.75529  0.26826  0.75317  Biso   1.000  O
  O12      1.0000 0.75529  0.05649  0.75317  Biso   1.000  O
  O13      1.0000 0.75529  0.05649  0.44722  Biso   1.000  O
  O14      1.0000 0.75529  0.26826  0.23545  Biso   1.000  O
  O15      1.0000 0.44934  0.57421  0.75317  Biso   1.000  O
  O16      1.0000 0.23758  0.57421  0.75317  Biso   1.000  O
  O17      1.0000 0.23758  0.26826  0.75317  Biso   1.000  O
  O18      1.0000 0.44934  0.05649  0.75317  Biso   1.000  O
  O19      1.0000 0.75529  0.57421  0.44722  Biso   1.000  O
  O20      1.0000 0.75529  0.57421  0.23545  Biso   1.000  O
  O21      1.0000 0.33959  0.64093  0.21176  Biso   1.000  O
  O22      1.0000 0.38758  0.59077  0.26410  Biso   1.000  O
  O23      1.0000 0.21388  0.64093  0.33747  Biso   1.000  O
  O24      1.0000 0.26623  0.59077  0.38545  Biso   1.000  O
  O25      1.0000 0.82201  0.15851  0.81989  Biso   1.000  O
  O26      1.0000 0.77185  0.20649  0.76972  Biso   1.000  O
  O27      1.0000 0.82202  0.03280  0.81989  Biso   1.000  O
  O28      1.0000 0.77185  0.08515  0.76972  Biso   1.000  O
  O29      1.0000 0.82201  0.03280  0.33747  Biso   1.000  O
  O30      1.0000 0.77185  0.08515  0.38545  Biso   1.000  O
  O31      1.0000 0.82201  0.15851  0.21176  Biso   1.000  O
  O32      1.0000 0.77185  0.20649  0.26410  Biso   1.000  O
  O33      1.0000 0.33959  0.64093  0.81989  Biso   1.000  O
  O34      1.0000 0.38758  0.59077  0.76972  Biso   1.000  O
  O35      1.0000 0.21388  0.64093  0.81989  Biso   1.000  O
  O36      1.0000 0.26623  0.59077  0.76972  Biso   1.000  O
  O37      1.0000 0.21388  0.15851  0.81989  Biso   1.000  O
  O38      1.0000 0.26623  0.20649  0.76972  Biso   1.000  O
  O39      1.0000 0.33959  0.03280  0.81989  Biso   1.000  O
  O40      1.0000 0.38758  0.08515  0.76972  Biso   1.000  O
  O41      1.0000 0.82201  0.64093  0.33747  Biso   1.000  O
  O42      1.0000 0.77185  0.59077  0.38545  Biso   1.000  O
  O43      1.0000 0.82202  0.64093  0.21176  Biso   1.000  O
  O44      1.0000 0.77185  0.59077  0.26410  Biso   1.000  O
  O45      1.0000 0.18900  0.72867  0.18687  Biso   1.000  O
  O46      1.0000 0.25245  0.66522  0.25032  Biso   1.000  O
  O47      1.0000 0.40899  0.50868  0.40687  Biso   1.000  O
  O48      1.0000 0.35893  0.55874  0.35680  Biso   1.000  O
  O49      1.0000 0.90976  0.00791  0.90763  Biso   1.000  O
  O50      1.0000 0.84630  0.07137  0.84418  Biso   1.000  O
  O51      1.0000 0.68976  0.22791  0.68764  Biso   1.000  O
  O52      1.0000 0.73983  0.17784  0.73770  Biso   1.000  O
  O53      1.0000 0.90975  0.00791  0.18687  Biso   1.000  O
  O54      1.0000 0.84630  0.07137  0.25032  Biso   1.000  O
  O55      1.0000 0.68976  0.22791  0.40687  Biso   1.000  O
  O56      1.0000 0.73983  0.17784  0.35680  Biso   1.000  O
  O57      1.0000 0.18900  0.72867  0.90763  Biso   1.000  O
  O58      1.0000 0.25245  0.66522  0.84418  Biso   1.000  O
  O59      1.0000 0.40899  0.50868  0.68764  Biso   1.000  O
  O60      1.0000 0.35893  0.55874  0.73770  Biso   1.000  O
  O61      1.0000 0.18900  0.00791  0.90763  Biso   1.000  O
  O62      1.0000 0.25245  0.07137  0.84418  Biso   1.000  O
  O63      1.0000 0.40899  0.22791  0.68764  Biso   1.000  O
  O64      1.0000 0.35893  0.17784  0.73770  Biso   1.000  O
  O65      1.0000 0.90976  0.72867  0.18687  Biso   1.000  O
  O66      1.0000 0.84630  0.66522  0.25032  Biso   1.000  O
  O67      1.0000 0.68976  0.50868  0.40687  Biso   1.000  O
  O68      1.0000 0.73983  0.55874  0.35680  Biso   1.000  O
  O69      1.0000 0.54938  0.36829  0.54725  Biso   1.000  O
  O70      1.0000 0.06226  0.86400  0.04296  Biso   1.000  O
  O71      1.0000 0.22746  0.75048  0.10478  Biso   1.000  O
  O72      1.0000 0.49356  0.48399  0.37167  Biso   1.000  O
  O73      1.0000 0.10691  0.75048  0.22534  Biso   1.000  O
  O74      1.0000 0.37380  0.48399  0.49143  Biso   1.000  O
  O75      1.0000 0.93157  0.04638  0.92944  Biso   1.000  O
  O76      1.0000 0.66507  0.31248  0.66295  Biso   1.000  O
  O77      1.0000 0.93157  0.92583  0.92944  Biso   1.000  O
  O78      1.0000 0.66507  0.19271  0.66295  Biso   1.000  O
  O79      1.0000 0.93157  0.92583  0.22534  Biso   1.000  O
  O80      1.0000 0.66507  0.19271  0.49143  Biso   1.000  O
  O81      1.0000 0.93157  0.04638  0.10478  Biso   1.000  O
  O82      1.0000 0.66507  0.31248  0.37167  Biso   1.000  O
  O83      1.0000 0.22746  0.75048  0.92944  Biso   1.000  O
  O84      1.0000 0.49356  0.48399  0.66295  Biso   1.000  O
  O85      1.0000 0.10691  0.75048  0.92944  Biso   1.000  O
  O86      1.0000 0.37380  0.48399  0.66295  Biso   1.000  O
  O87      1.0000 0.10691  0.04638  0.92944  Biso   1.000  O
  O88      1.0000 0.37380  0.31248  0.66295  Biso   1.000  O
  O89      1.0000 0.22746  0.92583  0.92944  Biso   1.000  O
  O90      1.0000 0.49356  0.19271  0.66295  Biso   1.000  O
  O91      1.0000 0.93157  0.75048  0.22534  Biso   1.000  O
  O92      1.0000 0.66507  0.48399  0.49143  Biso   1.000  O
  O93      1.0000 0.93157  0.75048  0.10478  Biso   1.000  O
