data_image0
_cell_length_a       18.3054
_cell_length_b       18.3054
_cell_length_c       18.3054
_cell_angle_alpha    60
_cell_angle_beta     60
_cell_angle_gamma    60

_symmetry_space_group_name_H-M    "P 1"
_symmetry_int_tables_number       1

loop_
  _symmetry_equiv_pos_as_xyz
  'x, y, z'

loop_
  _atom_site_label
  _atom_site_occupancy
  _atom_site_fract_x
  _atom_site_fract_y
  _atom_site_fract_z
  _atom_site_thermal_displace_type
  _atom_site_B_iso_or_equiv
  _atom_site_type_symbol
  C1       1.0000 0.20620  0.38140  0.20620  Biso   1.000  C
  C2       1.0000 0.38140  0.20620  0.20620  Biso   1.000  C
  C3       1.0000 0.20620  0.20620  0.20620  Biso   1.000  C
  C4       1.0000 0.20620  0.20620  0.38140  Biso   1.000  C
  C5       1.0000 0.61860  0.79380  0.79380  Biso   1.000  C
  C6       1.0000 0.79380  0.61860  0.79380  Biso   1.000  C
  C7       1.0000 0.79380  0.79380  0.79380  Biso   1.000  C
  C8       1.0000 0.79380  0.79380  0.61860  Biso   1.000  C
  C9       1.0000 0.04910  0.56290  0.04910  Biso   1.000  C
  C10      1.0000 0.56290  0.04910  0.33890  Biso   1.000  C
  C11      1.0000 0.04910  0.33890  0.04910  Biso   1.000  C
  C12      1.0000 0.33890  0.04910  0.56290  Biso   1.000  C
  C13      1.0000 0.04910  0.04910  0.33890  Biso   1.000  C
  C14      1.0000 0.56290  0.33890  0.04910  Biso   1.000  C
  C15      1.0000 0.04910  0.04910  0.56290  Biso   1.000  C
  C16      1.0000 0.33890  0.56290  0.04910  Biso   1.000  C
  C17      1.0000 0.04910  0.33890  0.56290  Biso   1.000  C
  C18      1.0000 0.56290  0.04910  0.04910  Biso   1.000  C
  C19      1.0000 0.04910  0.56290  0.33890  Biso   1.000  C
  C20      1.0000 0.33890  0.04910  0.04910  Biso   1.000  C
  C21      1.0000 0.43710  0.95090  0.95090  Biso   1.000  C
  C22      1.0000 0.95090  0.43710  0.66110  Biso   1.000  C
  C23      1.0000 0.66110  0.95090  0.95090  Biso   1.000  C
  C24      1.0000 0.95090  0.66110  0.43710  Biso   1.000  C
  C25      1.0000 0.95090  0.95090  0.66110  Biso   1.000  C
  C26      1.0000 0.66110  0.43710  0.95090  Biso   1.000  C
  C27      1.0000 0.95090  0.95090  0.43710  Biso   1.000  C
  C28      1.0000 0.43710  0.66110  0.95090  Biso   1.000  C
  C29      1.0000 0.66110  0.95090  0.43710  Biso   1.000  C
  C30      1.0000 0.95090  0.43710  0.95090  Biso   1.000  C
  C31      1.0000 0.43710  0.95090  0.66110  Biso   1.000  C
  C32      1.0000 0.95090  0.66110  0.95090  Biso   1.000  C
  C33      1.0000 0.02610  0.53970  0.02610  Biso   1.000  C
  C34      1.0000 0.53970  0.02610  0.40810  Biso   1.000  C
  C35      1.0000 0.02610  0.40810  0.02610  Biso   1.000  C
  C36      1.0000 0.40810  0.02610  0.53970  Biso   1.000  C
  C37      1.0000 0.02610  0.02610  0.40810  Biso   1.000  C
  C38      1.0000 0.53970  0.40810  0.02610  Biso   1.000  C
  C39      1.0000 0.02610  0.02610  0.53970  Biso   1.000  C
  C40      1.0000 0.40810  0.53970  0.02610  Biso   1.000  C
  C41      1.0000 0.02610  0.40810  0.53970  Biso   1.000  C
  C42      1.0000 0.53970  0.02610  0.02610  Biso   1.000  C
  C43      1.0000 0.02610  0.53970  0.40810  Biso   1.000  C
  C44      1.0000 0.40810  0.02610  0.02610  Biso   1.000  C
  C45      1.0000 0.46030  0.97390  0.97390  Biso   1.000  C
  C46      1.0000 0.97390  0.46030  0.59190  Biso   1.000  C
  C47      1.0000 0.59190  0.97390  0.97390  Biso   1.000  C
  C48      1.0000 0.97390  0.59190  0.46030  Biso   1.000  C
  C49      1.0000 0.97390  0.97390  0.59190  Biso   1.000  C
  C50      1.0000 0.59190  0.46030  0.97390  Biso   1.000  C
  C51      1.0000 0.97390  0.97390  0.46030  Biso   1.000  C
  C52      1.0000 0.46030  0.59190  0.97390  Biso   1.000  C
  C53      1.0000 0.59190  0.97390  0.46030  Biso   1.000  C
  C54      1.0000 0.97390  0.46030  0.97390  Biso   1.000  C
  C55      1.0000 0.46030  0.97390  0.59190  Biso   1.000  C
  C56      1.0000 0.97390  0.59190  0.97390  Biso   1.000  C
  C57      1.0000 0.10850  0.39150  0.10850  Biso   1.000  C
  C58      1.0000 0.05500  0.44500  0.05500  Biso   1.000  C
  C59      1.0000 0.39150  0.10850  0.39150  Biso   1.000  C
  C60      1.0000 0.44500  0.05500  0.44500  Biso   1.000  C
  C61      1.0000 0.10850  0.10850  0.39150  Biso   1.000  C
  C62      1.0000 0.05500  0.05500  0.44500  Biso   1.000  C
  C63      1.0000 0.39150  0.39150  0.10850  Biso   1.000  C
  C64      1.0000 0.44500  0.44500  0.05500  Biso   1.000  C
  C65      1.0000 0.10850  0.39150  0.39150  Biso   1.000  C
  C66      1.0000 0.05500  0.44500  0.44500  Biso   1.000  C
  C67      1.0000 0.39150  0.10850  0.10850  Biso   1.000  C
  C68      1.0000 0.44500  0.05500  0.05500  Biso   1.000  C
  C69      1.0000 0.60850  0.89150  0.89150  Biso   1.000  C
  C70      1.0000 0.55500  0.94500  0.94500  Biso   1.000  C
  C71      1.0000 0.89150  0.60850  0.60850  Biso   1.000  C
  C72      1.0000 0.94500  0.55500  0.55500  Biso   1.000  C
  C73      1.0000 0.89150  0.89150  0.60850  Biso   1.000  C
  C74      1.0000 0.94500  0.94500  0.55500  Biso   1.000  C
  C75      1.0000 0.60850  0.60850  0.89150  Biso   1.000  C
  C76      1.0000 0.55500  0.55500  0.94500  Biso   1.000  C
  C77      1.0000 0.60850  0.89150  0.60850  Biso   1.000  C
  C78      1.0000 0.55500  0.94500  0.55500  Biso   1.000  C
  C79      1.0000 0.89150  0.60850  0.89150  Biso   1.000  C
  C80      1.0000 0.94500  0.55500  0.94500  Biso   1.000  C
  C81      1.0000 0.25000  0.25000  0.25000  Biso   1.000  C
  C82      1.0000 0.75000  0.75000  0.75000  Biso   1.000  C
  C83      1.0000 0.13390  0.42730  0.13390  Biso   1.000  C
  C84      1.0000 0.42730  0.13390  0.30490  Biso   1.000  C
  C85      1.0000 0.13390  0.30490  0.13390  Biso   1.000  C
  C86      1.0000 0.30490  0.13390  0.42730  Biso   1.000  C
  C87      1.0000 0.13390  0.13390  0.30490  Biso   1.000  C
  C88      1.0000 0.42730  0.30490  0.13390  Biso   1.000  C
  C89      1.0000 0.13390  0.13390  0.42730  Biso   1.000  C
  C90      1.0000 0.30490  0.42730  0.13390  Biso   1.000  C
  C91      1.0000 0.13390  0.30490  0.42730  Biso   1.000  C
  C92      1.0000 0.42730  0.13390  0.13390  Biso   1.000  C
  C93      1.0000 0.13390  0.42730  0.30490  Biso   1.000  C
  C94      1.0000 0.30490  0.13390  0.13390  Biso   1.000  C
  C95      1.0000 0.57270  0.86610  0.86610  Biso   1.000  C
  C96      1.0000 0.86610  0.57270  0.69510  Biso   1.000  C
  C97      1.0000 0.69510  0.86610  0.86610  Biso   1.000  C
  C98      1.0000 0.86610  0.69510  0.57270  Biso   1.000  C
  C99      1.0000 0.86610  0.86610  0.69510  Biso   1.000  C
  C100     1.0000 0.69510  0.57270  0.86610  Biso   1.000  C
  C101     1.0000 0.86610  0.86610  0.57270  Biso   1.000  C
  C102     1.0000 0.57270  0.69510  0.86610  Biso   1.000  C
  C103     1.0000 0.69510  0.86610  0.57270  Biso   1.000  C
  C104     1.0000 0.86610  0.57270  0.86610  Biso   1.000  C
  C105     1.0000 0.57270  0.86610  0.69510  Biso   1.000  C
  C106     1.0000 0.86610  0.69510  0.86610  Biso   1.000  C
  O1       1.0000 0.16389  0.00000  0.00000  Biso   1.000  O
  O2       1.0000 0.57816  0.58572  0.41430  Biso   1.000  O
  O3       1.0000 0.57816  0.41187  0.41430  Biso   1.000  O
  O4       1.0000 0.16389  0.82615  0.00000  Biso   1.000  O
  O5       1.0000 0.16363  0.00020  0.82601  Biso   1.000  O
  O6       1.0000 0.98969  0.00007  0.00021  Biso   1.000  O
  O7       1.0000 0.57841  0.41167  0.58829  Biso   1.000  O
  O8       1.0000 0.75236  0.41180  0.41409  Biso   1.000  O
  O9       1.0000 0.32792  0.64085  0.85901  Biso   1.000  O
  O10      1.0000 0.31970  0.85925  0.64573  Biso   1.000  O
  O11      1.0000 0.02792  0.64283  0.16065  Biso   1.000  O
  O12      1.0000 0.80454  0.86042  0.16593  Biso   1.000  O
  O13      1.0000 0.32963  0.85982  0.15885  Biso   1.000  O
  O14      1.0000 0.41412  0.24961  0.55529  Biso   1.000  O
  O15      1.0000 0.42234  0.24651  0.76857  Biso   1.000  O
  O16      1.0000 0.71413  0.25322  0.25365  Biso   1.000  O
  O17      1.0000 0.93750  0.25272  0.24837  Biso   1.000  O
  O18      1.0000 0.41241  0.77013  0.25545  Biso   1.000  O
  O19      1.0000 0.41412  0.77101  0.55529  Biso   1.000  O
  O20      1.0000 0.42234  0.55262  0.76857  Biso   1.000  O
  O21      1.0000 0.71413  0.76903  0.25365  Biso   1.000  O
  O22      1.0000 0.93751  0.55145  0.24837  Biso   1.000  O
  O23      1.0000 0.41241  0.55204  0.25545  Biso   1.000  O
  O24      1.0000 0.32792  0.16225  0.85901  Biso   1.000  O
  O25      1.0000 0.31970  0.16535  0.64573  Biso   1.000  O
  O26      1.0000 0.02791  0.15865  0.16065  Biso   1.000  O
  O27      1.0000 0.80454  0.15915  0.16593  Biso   1.000  O
  O28      1.0000 0.32963  0.64173  0.15885  Biso   1.000  O
  O29      1.0000 0.80841  0.16096  0.85971  Biso   1.000  O
  O30      1.0000 0.02088  0.16366  0.64184  Biso   1.000  O
  O31      1.0000 0.93363  0.25091  0.55459  Biso   1.000  O
  O32      1.0000 0.72116  0.24821  0.77246  Biso   1.000  O
  O33      1.0000 0.25869  0.81647  0.82043  Biso   1.000  O
  O34      1.0000 0.31711  0.75964  0.76020  Biso   1.000  O
  O35      1.0000 0.34676  0.66728  0.79689  Biso   1.000  O
  O36      1.0000 0.34064  0.79723  0.67125  Biso   1.000  O
  O37      1.0000 0.98211  0.81765  0.09623  Biso   1.000  O
  O38      1.0000 0.92518  0.76211  0.15297  Biso   1.000  O
  O39      1.0000 0.96600  0.66845  0.17810  Biso   1.000  O
  O40      1.0000 0.83206  0.79860  0.18149  Biso   1.000  O
  O41      1.0000 0.34588  0.79790  0.17830  Biso   1.000  O
  O42      1.0000 0.48335  0.31741  0.59388  Biso   1.000  O
  O43      1.0000 0.42493  0.25878  0.65410  Biso   1.000  O
  O44      1.0000 0.39528  0.23276  0.61741  Biso   1.000  O
  O45      1.0000 0.40140  0.23096  0.74305  Biso   1.000  O
  O46      1.0000 0.75993  0.31783  0.31807  Biso   1.000  O
  O47      1.0000 0.81686  0.26209  0.26133  Biso   1.000  O
  O48      1.0000 0.77605  0.23437  0.23620  Biso   1.000  O
  O49      1.0000 0.90998  0.23398  0.23281  Biso   1.000  O
  O50      1.0000 0.39616  0.74391  0.23600  Biso   1.000  O
  O51      1.0000 0.48335  0.59540  0.59388  Biso   1.000  O
  O52      1.0000 0.42493  0.65223  0.65410  Biso   1.000  O
  O53      1.0000 0.39528  0.74459  0.61741  Biso   1.000  O
  O54      1.0000 0.40140  0.61463  0.74305  Biso   1.000  O
  O55      1.0000 0.75993  0.59422  0.31807  Biso   1.000  O
  O56      1.0000 0.81686  0.64976  0.26133  Biso   1.000  O
  O57      1.0000 0.77604  0.74341  0.23620  Biso   1.000  O
  O58      1.0000 0.90999  0.61327  0.23281  Biso   1.000  O
  O59      1.0000 0.39616  0.61396  0.23600  Biso   1.000  O
  O60      1.0000 0.25869  0.09445  0.82043  Biso   1.000  O
  O61      1.0000 0.31712  0.15308  0.76020  Biso   1.000  O
  O62      1.0000 0.34676  0.17911  0.79689  Biso   1.000  O
  O63      1.0000 0.34064  0.18091  0.67125  Biso   1.000  O
  O64      1.0000 0.98211  0.09404  0.09623  Biso   1.000  O
  O65      1.0000 0.92518  0.14977  0.15297  Biso   1.000  O
  O66      1.0000 0.96600  0.17749  0.17810  Biso   1.000  O
  O67      1.0000 0.83206  0.17789  0.18149  Biso   1.000  O
  O68      1.0000 0.34589  0.66796  0.17830  Biso   1.000  O
  O69      1.0000 0.98389  0.09615  0.81384  Biso   1.000  O
  O70      1.0000 0.92487  0.15209  0.76100  Biso   1.000  O
  O71      1.0000 0.83493  0.17861  0.79789  Biso   1.000  O
  O72      1.0000 0.95876  0.18101  0.66926  Biso   1.000  O
  O73      1.0000 0.25790  0.82054  0.09105  Biso   1.000  O
  O74      1.0000 0.31614  0.76051  0.15287  Biso   1.000  O
  O75      1.0000 0.75815  0.31572  0.60046  Biso   1.000  O
  O76      1.0000 0.81718  0.25978  0.65331  Biso   1.000  O
  O77      1.0000 0.90711  0.23326  0.61641  Biso   1.000  O
  O78      1.0000 0.78328  0.23086  0.74504  Biso   1.000  O
  O79      1.0000 0.48414  0.59133  0.32325  Biso   1.000  O
  O80      1.0000 0.42591  0.65135  0.26143  Biso   1.000  O
  O81      1.0000 0.23665  0.90192  0.77705  Biso   1.000  O
  O82      1.0000 0.23905  0.77608  0.90289  Biso   1.000  O
  O83      1.0000 0.94133  0.90300  0.07101  Biso   1.000  O
  O84      1.0000 0.06617  0.77757  0.07380  Biso   1.000  O
  O85      1.0000 0.23696  0.90330  0.07150  Biso   1.000  O
  O86      1.0000 0.50539  0.33745  0.63725  Biso   1.000  O
  O87      1.0000 0.50299  0.33985  0.51141  Biso   1.000  O
  O88      1.0000 0.80071  0.33717  0.34330  Biso   1.000  O
  O89      1.0000 0.67588  0.33936  0.34050  Biso   1.000  O
  O90      1.0000 0.50508  0.63360  0.34280  Biso   1.000  O
  O91      1.0000 0.50539  0.50995  0.63725  Biso   1.000  O
  O92      1.0000 0.50299  0.63579  0.51141  Biso   1.000  O
  O93      1.0000 0.80071  0.50887  0.34330  Biso   1.000  O
  O94      1.0000 0.67588  0.63430  0.34050  Biso   1.000  O
  O95      1.0000 0.50508  0.50857  0.34280  Biso   1.000  O
  O96      1.0000 0.23665  0.07441  0.77705  Biso   1.000  O
  O97      1.0000 0.23905  0.07201  0.90289  Biso   1.000  O
  O98      1.0000 0.94133  0.07470  0.07101  Biso   1.000  O
  O99      1.0000 0.06617  0.07250  0.07380  Biso   1.000  O
  O100     1.0000 0.23696  0.77827  0.07150  Biso   1.000  O
  O101     1.0000 0.12030  0.95675  0.95624  Biso   1.000  O
  O102     1.0000 0.06595  0.07302  0.77805  Biso   1.000  O
  O103     1.0000 0.94262  0.07461  0.89820  Biso   1.000  O
  O104     1.0000 0.62174  0.45512  0.45807  Biso   1.000  O
  O105     1.0000 0.67609  0.33885  0.63625  Biso   1.000  O
