data_image0
_cell_length_a       18.283
_cell_length_b       18.283
_cell_length_c       18.283
_cell_angle_alpha    60
_cell_angle_beta     60
_cell_angle_gamma    60

_symmetry_space_group_name_H-M    "P 1"
_symmetry_int_tables_number       1

loop_
  _symmetry_equiv_pos_as_xyz
  'x, y, z'

loop_
  _atom_site_label
  _atom_site_occupancy
  _atom_site_fract_x
  _atom_site_fract_y
  _atom_site_fract_z
  _atom_site_thermal_displace_type
  _atom_site_B_iso_or_equiv
  _atom_site_type_symbol
  C1       1.0000 0.20670  0.37990  0.20670  Biso   1.000  C
  C2       1.0000 0.37990  0.20670  0.20670  Biso   1.000  C
  C3       1.0000 0.20670  0.20670  0.20670  Biso   1.000  C
  C4       1.0000 0.20670  0.20670  0.37990  Biso   1.000  C
  C5       1.0000 0.62010  0.79330  0.79330  Biso   1.000  C
  C6       1.0000 0.79330  0.62010  0.79330  Biso   1.000  C
  C7       1.0000 0.79330  0.79330  0.79330  Biso   1.000  C
  C8       1.0000 0.79330  0.79330  0.62010  Biso   1.000  C
  C9       1.0000 0.04940  0.56380  0.04940  Biso   1.000  C
  C10      1.0000 0.56380  0.04940  0.33740  Biso   1.000  C
  C11      1.0000 0.04940  0.33740  0.04940  Biso   1.000  C
  C12      1.0000 0.33740  0.04940  0.56380  Biso   1.000  C
  C13      1.0000 0.04940  0.04940  0.33740  Biso   1.000  C
  C14      1.0000 0.56380  0.33740  0.04940  Biso   1.000  C
  C15      1.0000 0.04940  0.04940  0.56380  Biso   1.000  C
  C16      1.0000 0.33740  0.56380  0.04940  Biso   1.000  C
  C17      1.0000 0.04940  0.33740  0.56380  Biso   1.000  C
  C18      1.0000 0.56380  0.04940  0.04940  Biso   1.000  C
  C19      1.0000 0.04940  0.56380  0.33740  Biso   1.000  C
  C20      1.0000 0.33740  0.04940  0.04940  Biso   1.000  C
  C21      1.0000 0.43620  0.95060  0.95060  Biso   1.000  C
  C22      1.0000 0.95060  0.43620  0.66260  Biso   1.000  C
  C23      1.0000 0.66260  0.95060  0.95060  Biso   1.000  C
  C24      1.0000 0.95060  0.66260  0.43620  Biso   1.000  C
  C25      1.0000 0.95060  0.95060  0.66260  Biso   1.000  C
  C26      1.0000 0.66260  0.43620  0.95060  Biso   1.000  C
  C27      1.0000 0.95060  0.95060  0.43620  Biso   1.000  C
  C28      1.0000 0.43620  0.66260  0.95060  Biso   1.000  C
  C29      1.0000 0.66260  0.95060  0.43620  Biso   1.000  C
  C30      1.0000 0.95060  0.43620  0.95060  Biso   1.000  C
  C31      1.0000 0.43620  0.95060  0.66260  Biso   1.000  C
  C32      1.0000 0.95060  0.66260  0.95060  Biso   1.000  C
  C33      1.0000 0.02700  0.53820  0.02700  Biso   1.000  C
  C34      1.0000 0.53820  0.02700  0.40780  Biso   1.000  C
  C35      1.0000 0.02700  0.40780  0.02700  Biso   1.000  C
  C36      1.0000 0.40780  0.02700  0.53820  Biso   1.000  C
  C37      1.0000 0.02700  0.02700  0.40780  Biso   1.000  C
  C38      1.0000 0.53820  0.40780  0.02700  Biso   1.000  C
  C39      1.0000 0.02700  0.02700  0.53820  Biso   1.000  C
  C40      1.0000 0.40780  0.53820  0.02700  Biso   1.000  C
  C41      1.0000 0.02700  0.40780  0.53820  Biso   1.000  C
  C42      1.0000 0.53820  0.02700  0.02700  Biso   1.000  C
  C43      1.0000 0.02700  0.53820  0.40780  Biso   1.000  C
  C44      1.0000 0.40780  0.02700  0.02700  Biso   1.000  C
  C45      1.0000 0.46180  0.97300  0.97300  Biso   1.000  C
  C46      1.0000 0.97300  0.46180  0.59220  Biso   1.000  C
  C47      1.0000 0.59220  0.97300  0.97300  Biso   1.000  C
  C48      1.0000 0.97300  0.59220  0.46180  Biso   1.000  C
  C49      1.0000 0.97300  0.97300  0.59220  Biso   1.000  C
  C50      1.0000 0.59220  0.46180  0.97300  Biso   1.000  C
  C51      1.0000 0.97300  0.97300  0.46180  Biso   1.000  C
  C52      1.0000 0.46180  0.59220  0.97300  Biso   1.000  C
  C53      1.0000 0.59220  0.97300  0.46180  Biso   1.000  C
  C54      1.0000 0.97300  0.46180  0.97300  Biso   1.000  C
  C55      1.0000 0.46180  0.97300  0.59220  Biso   1.000  C
  C56      1.0000 0.97300  0.59220  0.97300  Biso   1.000  C
  C57      1.0000 0.11070  0.38930  0.11070  Biso   1.000  C
  C58      1.0000 0.05420  0.44580  0.05420  Biso   1.000  C
  C59      1.0000 0.38930  0.11070  0.38930  Biso   1.000  C
  C60      1.0000 0.44580  0.05420  0.44580  Biso   1.000  C
  C61      1.0000 0.11070  0.11070  0.38930  Biso   1.000  C
  C62      1.0000 0.05420  0.05420  0.44580  Biso   1.000  C
  C63      1.0000 0.38930  0.38930  0.11070  Biso   1.000  C
  C64      1.0000 0.44580  0.44580  0.05420  Biso   1.000  C
  C65      1.0000 0.11070  0.38930  0.38930  Biso   1.000  C
  C66      1.0000 0.05420  0.44580  0.44580  Biso   1.000  C
  C67      1.0000 0.38930  0.11070  0.11070  Biso   1.000  C
  C68      1.0000 0.44580  0.05420  0.05420  Biso   1.000  C
  C69      1.0000 0.61070  0.88930  0.88930  Biso   1.000  C
  C70      1.0000 0.55420  0.94580  0.94580  Biso   1.000  C
  C71      1.0000 0.88930  0.61070  0.61070  Biso   1.000  C
  C72      1.0000 0.94580  0.55420  0.55420  Biso   1.000  C
  C73      1.0000 0.88930  0.88930  0.61070  Biso   1.000  C
  C74      1.0000 0.94580  0.94580  0.55420  Biso   1.000  C
  C75      1.0000 0.61070  0.61070  0.88930  Biso   1.000  C
  C76      1.0000 0.55420  0.55420  0.94580  Biso   1.000  C
  C77      1.0000 0.61070  0.88930  0.61070  Biso   1.000  C
  C78      1.0000 0.55420  0.94580  0.55420  Biso   1.000  C
  C79      1.0000 0.88930  0.61070  0.88930  Biso   1.000  C
  C80      1.0000 0.94580  0.55420  0.94580  Biso   1.000  C
  C81      1.0000 0.25000  0.25000  0.25000  Biso   1.000  C
  C82      1.0000 0.75000  0.75000  0.75000  Biso   1.000  C
  C83      1.0000 0.13430  0.42670  0.13430  Biso   1.000  C
  C84      1.0000 0.42670  0.13430  0.30470  Biso   1.000  C
  C85      1.0000 0.13430  0.30470  0.13430  Biso   1.000  C
  C86      1.0000 0.30470  0.13430  0.42670  Biso   1.000  C
  C87      1.0000 0.13430  0.13430  0.30470  Biso   1.000  C
  C88      1.0000 0.42670  0.30470  0.13430  Biso   1.000  C
  C89      1.0000 0.13430  0.13430  0.42670  Biso   1.000  C
  C90      1.0000 0.30470  0.42670  0.13430  Biso   1.000  C
  C91      1.0000 0.13430  0.30470  0.42670  Biso   1.000  C
  C92      1.0000 0.42670  0.13430  0.13430  Biso   1.000  C
  C93      1.0000 0.13430  0.42670  0.30470  Biso   1.000  C
  C94      1.0000 0.30470  0.13430  0.13430  Biso   1.000  C
  C95      1.0000 0.57330  0.86570  0.86570  Biso   1.000  C
  C96      1.0000 0.86570  0.57330  0.69530  Biso   1.000  C
  C97      1.0000 0.69530  0.86570  0.86570  Biso   1.000  C
  C98      1.0000 0.86570  0.69530  0.57330  Biso   1.000  C
  C99      1.0000 0.86570  0.86570  0.69530  Biso   1.000  C
  C100     1.0000 0.69530  0.57330  0.86570  Biso   1.000  C
  C101     1.0000 0.86570  0.86570  0.57330  Biso   1.000  C
  C102     1.0000 0.57330  0.69530  0.86570  Biso   1.000  C
  C103     1.0000 0.69530  0.86570  0.57330  Biso   1.000  C
  C104     1.0000 0.86570  0.57330  0.86570  Biso   1.000  C
  C105     1.0000 0.57330  0.86570  0.69530  Biso   1.000  C
  C106     1.0000 0.86570  0.69530  0.86570  Biso   1.000  C
  O1       1.0000 0.50239  0.51992  0.33494  Biso   1.000  O
  O2       1.0000 0.50239  0.51992  0.50876  Biso   1.000  O
  O3       1.0000 0.32857  0.51992  0.50876  Biso   1.000  O
  O4       1.0000 0.50239  0.34610  0.50876  Biso   1.000  O
  O5       1.0000 0.91421  0.93172  0.09438  Biso   1.000  O
  O6       1.0000 0.91421  0.93172  0.92056  Biso   1.000  O
  O7       1.0000 0.91421  0.10554  0.92056  Biso   1.000  O
  O8       1.0000 0.08803  0.93172  0.92056  Biso   1.000  O
  O9       1.0000 0.66441  0.68194  0.14994  Biso   1.000  O
  O10      1.0000 0.66441  0.68194  0.36716  Biso   1.000  O
  O11      1.0000 0.14358  0.37832  0.67077  Biso   1.000  O
  O12      1.0000 0.36080  0.16110  0.67077  Biso   1.000  O
  O13      1.0000 0.66441  0.16110  0.36716  Biso   1.000  O
  O14      1.0000 0.66441  0.37832  0.14994  Biso   1.000  O
  O15      1.0000 0.14358  0.68194  0.67077  Biso   1.000  O
  O16      1.0000 0.36080  0.68194  0.67077  Biso   1.000  O
  O17      1.0000 0.66441  0.37832  0.67077  Biso   1.000  O
  O18      1.0000 0.66441  0.16110  0.67077  Biso   1.000  O
  O19      1.0000 0.14358  0.68194  0.36716  Biso   1.000  O
  O20      1.0000 0.36080  0.68194  0.14994  Biso   1.000  O
  O21      1.0000 0.75219  0.76971  0.27938  Biso   1.000  O
  O22      1.0000 0.75219  0.76971  0.06216  Biso   1.000  O
  O23      1.0000 0.05580  0.29055  0.75855  Biso   1.000  O
  O24      1.0000 0.27303  0.07332  0.75855  Biso   1.000  O
  O25      1.0000 0.27303  0.76971  0.06216  Biso   1.000  O
  O26      1.0000 0.05580  0.76971  0.27938  Biso   1.000  O
  O27      1.0000 0.75219  0.29055  0.75855  Biso   1.000  O
  O28      1.0000 0.75219  0.07332  0.75855  Biso   1.000  O
  O29      1.0000 0.05580  0.76971  0.75855  Biso   1.000  O
  O30      1.0000 0.27303  0.76971  0.75855  Biso   1.000  O
  O31      1.0000 0.75219  0.29055  0.06216  Biso   1.000  O
  O32      1.0000 0.75219  0.07332  0.27938  Biso   1.000  O
  O33      1.0000 0.68197  0.69949  0.17667  Biso   1.000  O
  O34      1.0000 0.68197  0.69949  0.30532  Biso   1.000  O
  O35      1.0000 0.17031  0.31648  0.68833  Biso   1.000  O
  O36      1.0000 0.29896  0.18783  0.68833  Biso   1.000  O
  O37      1.0000 0.68197  0.18783  0.30532  Biso   1.000  O
  O38      1.0000 0.68197  0.31648  0.17667  Biso   1.000  O
  O39      1.0000 0.17031  0.69949  0.68833  Biso   1.000  O
  O40      1.0000 0.29896  0.69949  0.68833  Biso   1.000  O
  O41      1.0000 0.68197  0.31648  0.68833  Biso   1.000  O
  O42      1.0000 0.68197  0.18783  0.68833  Biso   1.000  O
  O43      1.0000 0.17031  0.69949  0.30532  Biso   1.000  O
  O44      1.0000 0.29896  0.69949  0.17667  Biso   1.000  O
  O45      1.0000 0.73463  0.75215  0.25265  Biso   1.000  O
  O46      1.0000 0.73463  0.75215  0.12400  Biso   1.000  O
  O47      1.0000 0.11764  0.26382  0.74099  Biso   1.000  O
  O48      1.0000 0.24629  0.13516  0.74099  Biso   1.000  O
  O49      1.0000 0.24629  0.75215  0.12400  Biso   1.000  O
  O50      1.0000 0.11764  0.75215  0.25265  Biso   1.000  O
  O51      1.0000 0.73463  0.26382  0.74099  Biso   1.000  O
  O52      1.0000 0.73463  0.13516  0.74099  Biso   1.000  O
  O53      1.0000 0.11764  0.75215  0.74099  Biso   1.000  O
  O54      1.0000 0.24629  0.75215  0.74099  Biso   1.000  O
  O55      1.0000 0.73463  0.26382  0.12400  Biso   1.000  O
  O56      1.0000 0.73463  0.13516  0.25265  Biso   1.000  O
  O57      1.0000 0.59719  0.61471  0.32706  Biso   1.000  O
  O58      1.0000 0.65474  0.67226  0.26951  Biso   1.000  O
  O59      1.0000 0.32070  0.33822  0.60355  Biso   1.000  O
  O60      1.0000 0.26315  0.28067  0.66110  Biso   1.000  O
  O61      1.0000 0.59719  0.33822  0.32706  Biso   1.000  O
  O62      1.0000 0.65474  0.28067  0.26951  Biso   1.000  O
  O63      1.0000 0.32070  0.61471  0.60355  Biso   1.000  O
  O64      1.0000 0.26315  0.67226  0.66110  Biso   1.000  O
  O65      1.0000 0.59719  0.33822  0.60355  Biso   1.000  O
  O66      1.0000 0.65474  0.28067  0.66110  Biso   1.000  O
  O67      1.0000 0.32070  0.61471  0.32706  Biso   1.000  O
  O68      1.0000 0.26315  0.67226  0.26951  Biso   1.000  O
  O69      1.0000 0.81941  0.83693  0.10226  Biso   1.000  O
  O70      1.0000 0.76186  0.77938  0.15981  Biso   1.000  O
  O71      1.0000 0.09590  0.11342  0.82577  Biso   1.000  O
  O72      1.0000 0.15345  0.17097  0.76822  Biso   1.000  O
  O73      1.0000 0.09590  0.83693  0.10226  Biso   1.000  O
  O74      1.0000 0.15345  0.77938  0.15981  Biso   1.000  O
  O75      1.0000 0.81941  0.11342  0.82577  Biso   1.000  O
  O76      1.0000 0.76186  0.17097  0.76822  Biso   1.000  O
  O77      1.0000 0.09590  0.83693  0.82577  Biso   1.000  O
  O78      1.0000 0.15345  0.77938  0.76822  Biso   1.000  O
  O79      1.0000 0.81941  0.11342  0.10226  Biso   1.000  O
  O80      1.0000 0.76186  0.17097  0.15981  Biso   1.000  O
  O81      1.0000 0.45895  0.47647  0.46530  Biso   1.000  O
  O82      1.0000 0.95766  0.97518  0.96402  Biso   1.000  O
  O83      1.0000 0.57470  0.59222  0.28899  Biso   1.000  O
  O84      1.0000 0.57470  0.59222  0.41012  Biso   1.000  O
  O85      1.0000 0.28263  0.42128  0.58106  Biso   1.000  O
  O86      1.0000 0.40376  0.30015  0.58106  Biso   1.000  O
  O87      1.0000 0.57470  0.30015  0.41012  Biso   1.000  O
  O88      1.0000 0.57470  0.42128  0.28899  Biso   1.000  O
  O89      1.0000 0.28263  0.59222  0.58106  Biso   1.000  O
  O90      1.0000 0.40376  0.59222  0.58106  Biso   1.000  O
  O91      1.0000 0.57470  0.42128  0.58106  Biso   1.000  O
  O92      1.0000 0.57470  0.30015  0.58106  Biso   1.000  O
  O93      1.0000 0.28263  0.59222  0.41012  Biso   1.000  O
  O94      1.0000 0.40376  0.59222  0.28899  Biso   1.000  O
  O95      1.0000 0.84191  0.85943  0.14033  Biso   1.000  O
  O96      1.0000 0.84191  0.85943  0.01920  Biso   1.000  O
  O97      1.0000 0.01284  0.15149  0.84827  Biso   1.000  O
  O98      1.0000 0.13397  0.03037  0.84827  Biso   1.000  O
  O99      1.0000 0.13397  0.85943  0.01920  Biso   1.000  O
  O100     1.0000 0.01284  0.85943  0.14033  Biso   1.000  O
  O101     1.0000 0.84191  0.15149  0.84827  Biso   1.000  O
  O102     1.0000 0.84191  0.03037  0.84827  Biso   1.000  O
  O103     1.0000 0.01284  0.85943  0.84827  Biso   1.000  O
  O104     1.0000 0.13397  0.85943  0.84827  Biso   1.000  O
  O105     1.0000 0.84191  0.15149  0.01920  Biso   1.000  O
