data_image0
_cell_length_a       18.3054
_cell_length_b       18.3054
_cell_length_c       18.3054
_cell_angle_alpha    60
_cell_angle_beta     60
_cell_angle_gamma    60

_symmetry_space_group_name_H-M    "P 1"
_symmetry_int_tables_number       1

loop_
  _symmetry_equiv_pos_as_xyz
  'x, y, z'

loop_
  _atom_site_label
  _atom_site_occupancy
  _atom_site_fract_x
  _atom_site_fract_y
  _atom_site_fract_z
  _atom_site_thermal_displace_type
  _atom_site_B_iso_or_equiv
  _atom_site_type_symbol
  Zn1      1.0000 0.20620  0.38140  0.20620  Biso   1.000  Zn
  Zn2      1.0000 0.38140  0.20620  0.20620  Biso   1.000  Zn
  Zn3      1.0000 0.20620  0.20620  0.20620  Biso   1.000  Zn
  Zn4      1.0000 0.20620  0.20620  0.38140  Biso   1.000  Zn
  Zn5      1.0000 0.61860  0.79380  0.79380  Biso   1.000  Zn
  Zn6      1.0000 0.79380  0.61860  0.79380  Biso   1.000  Zn
  Zn7      1.0000 0.79380  0.79380  0.79380  Biso   1.000  Zn
  Zn8      1.0000 0.79380  0.79380  0.61860  Biso   1.000  Zn
  H1       1.0000 0.04910  0.56290  0.04910  Biso   1.000  H
  H2       1.0000 0.56290  0.04910  0.33890  Biso   1.000  H
  H3       1.0000 0.04910  0.33890  0.04910  Biso   1.000  H
  H4       1.0000 0.33890  0.04910  0.56290  Biso   1.000  H
  H5       1.0000 0.04910  0.04910  0.33890  Biso   1.000  H
  H6       1.0000 0.56290  0.33890  0.04910  Biso   1.000  H
  H7       1.0000 0.04910  0.04910  0.56290  Biso   1.000  H
  H8       1.0000 0.33890  0.56290  0.04910  Biso   1.000  H
  H9       1.0000 0.04910  0.33890  0.56290  Biso   1.000  H
  H10      1.0000 0.56290  0.04910  0.04910  Biso   1.000  H
  H11      1.0000 0.04910  0.56290  0.33890  Biso   1.000  H
  H12      1.0000 0.33890  0.04910  0.04910  Biso   1.000  H
  H13      1.0000 0.43710  0.95090  0.95090  Biso   1.000  H
  H14      1.0000 0.95090  0.43710  0.66110  Biso   1.000  H
  H15      1.0000 0.66110  0.95090  0.95090  Biso   1.000  H
  H16      1.0000 0.95090  0.66110  0.43710  Biso   1.000  H
  H17      1.0000 0.95090  0.95090  0.66110  Biso   1.000  H
  H18      1.0000 0.66110  0.43710  0.95090  Biso   1.000  H
  H19      1.0000 0.95090  0.95090  0.43710  Biso   1.000  H
  H20      1.0000 0.43710  0.66110  0.95090  Biso   1.000  H
  H21      1.0000 0.66110  0.95090  0.43710  Biso   1.000  H
  H22      1.0000 0.95090  0.43710  0.95090  Biso   1.000  H
  H23      1.0000 0.43710  0.95090  0.66110  Biso   1.000  H
  H24      1.0000 0.95090  0.66110  0.95090  Biso   1.000  H
  C1       1.0000 0.02610  0.53970  0.02610  Biso   1.000  C
  C2       1.0000 0.53970  0.02610  0.40810  Biso   1.000  C
  C3       1.0000 0.02610  0.40810  0.02610  Biso   1.000  C
  C4       1.0000 0.40810  0.02610  0.53970  Biso   1.000  C
  C5       1.0000 0.02610  0.02610  0.40810  Biso   1.000  C
  C6       1.0000 0.53970  0.40810  0.02610  Biso   1.000  C
  C7       1.0000 0.02610  0.02610  0.53970  Biso   1.000  C
  C8       1.0000 0.40810  0.53970  0.02610  Biso   1.000  C
  C9       1.0000 0.02610  0.40810  0.53970  Biso   1.000  C
  C10      1.0000 0.53970  0.02610  0.02610  Biso   1.000  C
  C11      1.0000 0.02610  0.53970  0.40810  Biso   1.000  C
  C12      1.0000 0.40810  0.02610  0.02610  Biso   1.000  C
  C13      1.0000 0.46030  0.97390  0.97390  Biso   1.000  C
  C14      1.0000 0.97390  0.46030  0.59190  Biso   1.000  C
  C15      1.0000 0.59190  0.97390  0.97390  Biso   1.000  C
  C16      1.0000 0.97390  0.59190  0.46030  Biso   1.000  C
  C17      1.0000 0.97390  0.97390  0.59190  Biso   1.000  C
  C18      1.0000 0.59190  0.46030  0.97390  Biso   1.000  C
  C19      1.0000 0.97390  0.97390  0.46030  Biso   1.000  C
  C20      1.0000 0.46030  0.59190  0.97390  Biso   1.000  C
  C21      1.0000 0.59190  0.97390  0.46030  Biso   1.000  C
  C22      1.0000 0.97390  0.46030  0.97390  Biso   1.000  C
  C23      1.0000 0.46030  0.97390  0.59190  Biso   1.000  C
  C24      1.0000 0.97390  0.59190  0.97390  Biso   1.000  C
  C25      1.0000 0.10850  0.39150  0.10850  Biso   1.000  C
  C26      1.0000 0.05500  0.44500  0.05500  Biso   1.000  C
  C27      1.0000 0.39150  0.10850  0.39150  Biso   1.000  C
  C28      1.0000 0.44500  0.05500  0.44500  Biso   1.000  C
  C29      1.0000 0.10850  0.10850  0.39150  Biso   1.000  C
  C30      1.0000 0.05500  0.05500  0.44500  Biso   1.000  C
  C31      1.0000 0.39150  0.39150  0.10850  Biso   1.000  C
  C32      1.0000 0.44500  0.44500  0.05500  Biso   1.000  C
  C33      1.0000 0.10850  0.39150  0.39150  Biso   1.000  C
  C34      1.0000 0.05500  0.44500  0.44500  Biso   1.000  C
  C35      1.0000 0.39150  0.10850  0.10850  Biso   1.000  C
  C36      1.0000 0.44500  0.05500  0.05500  Biso   1.000  C
  C37      1.0000 0.60850  0.89150  0.89150  Biso   1.000  C
  C38      1.0000 0.55500  0.94500  0.94500  Biso   1.000  C
  C39      1.0000 0.89150  0.60850  0.60850  Biso   1.000  C
  C40      1.0000 0.94500  0.55500  0.55500  Biso   1.000  C
  C41      1.0000 0.89150  0.89150  0.60850  Biso   1.000  C
  C42      1.0000 0.94500  0.94500  0.55500  Biso   1.000  C
  C43      1.0000 0.60850  0.60850  0.89150  Biso   1.000  C
  C44      1.0000 0.55500  0.55500  0.94500  Biso   1.000  C
  C45      1.0000 0.60850  0.89150  0.60850  Biso   1.000  C
  C46      1.0000 0.55500  0.94500  0.55500  Biso   1.000  C
  C47      1.0000 0.89150  0.60850  0.89150  Biso   1.000  C
  C48      1.0000 0.94500  0.55500  0.94500  Biso   1.000  C
  O1       1.0000 0.25000  0.25000  0.25000  Biso   1.000  O
  O2       1.0000 0.75000  0.75000  0.75000  Biso   1.000  O
  O3       1.0000 0.13390  0.42730  0.13390  Biso   1.000  O
  O4       1.0000 0.42730  0.13390  0.30490  Biso   1.000  O
  O5       1.0000 0.13390  0.30490  0.13390  Biso   1.000  O
  O6       1.0000 0.30490  0.13390  0.42730  Biso   1.000  O
  O7       1.0000 0.13390  0.13390  0.30490  Biso   1.000  O
  O8       1.0000 0.42730  0.30490  0.13390  Biso   1.000  O
  O9       1.0000 0.13390  0.13390  0.42730  Biso   1.000  O
  O10      1.0000 0.30490  0.42730  0.13390  Biso   1.000  O
  O11      1.0000 0.13390  0.30490  0.42730  Biso   1.000  O
  O12      1.0000 0.42730  0.13390  0.13390  Biso   1.000  O
  O13      1.0000 0.13390  0.42730  0.30490  Biso   1.000  O
  O14      1.0000 0.30490  0.13390  0.13390  Biso   1.000  O
  O15      1.0000 0.57270  0.86610  0.86610  Biso   1.000  O
  O16      1.0000 0.86610  0.57270  0.69510  Biso   1.000  O
  O17      1.0000 0.69510  0.86610  0.86610  Biso   1.000  O
  O18      1.0000 0.86610  0.69510  0.57270  Biso   1.000  O
  O19      1.0000 0.86610  0.86610  0.69510  Biso   1.000  O
  O20      1.0000 0.69510  0.57270  0.86610  Biso   1.000  O
  O21      1.0000 0.86610  0.86610  0.57270  Biso   1.000  O
  O22      1.0000 0.57270  0.69510  0.86610  Biso   1.000  O
  O23      1.0000 0.69510  0.86610  0.57270  Biso   1.000  O
  O24      1.0000 0.86610  0.57270  0.86610  Biso   1.000  O
  O25      1.0000 0.57270  0.86610  0.69510  Biso   1.000  O
  O26      1.0000 0.86610  0.69510  0.86610  Biso   1.000  O
  Zn9      1.0000 0.00000  0.00000  0.00000  Biso   1.000  Zn
  Zn10     1.0000 0.00000  1.00000  0.17361  Biso   1.000  Zn
  Zn11     1.0000 0.82639  1.00000  0.17361  Biso   1.000  Zn
  Zn12     1.0000 0.00000  0.82639  0.17361  Biso   1.000  Zn
  Zn13     1.0000 0.41131  0.41129  0.75851  Biso   1.000  Zn
  Zn14     1.0000 0.41131  0.41129  0.58490  Biso   1.000  Zn
  Zn15     1.0000 0.41131  0.58490  0.58490  Biso   1.000  Zn
  Zn16     1.0000 0.58492  0.41129  0.58490  Biso   1.000  Zn
  H25      1.0000 0.16182  0.16181  0.81400  Biso   1.000  H
  H26      1.0000 0.16182  0.16181  0.03218  Biso   1.000  H
  H27      1.0000 0.64040  0.85857  0.33542  Biso   1.000  H
  H28      1.0000 0.85858  0.64039  0.33542  Biso   1.000  H
  H29      1.0000 0.16182  0.64039  0.03218  Biso   1.000  H
  H30      1.0000 0.16182  0.85857  0.81400  Biso   1.000  H
  H31      1.0000 0.64040  0.16181  0.33542  Biso   1.000  H
  H32      1.0000 0.85858  0.16181  0.33542  Biso   1.000  H
  H33      1.0000 0.16182  0.85857  0.33542  Biso   1.000  H
  H34      1.0000 0.16182  0.64039  0.33542  Biso   1.000  H
  H35      1.0000 0.64040  0.16181  0.03218  Biso   1.000  H
  H36      1.0000 0.85858  0.16181  0.81400  Biso   1.000  H
  H37      1.0000 0.24949  0.24948  0.94451  Biso   1.000  H
  H38      1.0000 0.24949  0.24948  0.72633  Biso   1.000  H
  H39      1.0000 0.55273  0.77090  0.42309  Biso   1.000  H
  H40      1.0000 0.77091  0.55272  0.42309  Biso   1.000  H
  H41      1.0000 0.77091  0.24948  0.72633  Biso   1.000  H
  H42      1.0000 0.55273  0.24948  0.94451  Biso   1.000  H
  H43      1.0000 0.24949  0.77090  0.42309  Biso   1.000  H
  H44      1.0000 0.24949  0.55272  0.42309  Biso   1.000  H
  H45      1.0000 0.55273  0.24948  0.42309  Biso   1.000  H
  H46      1.0000 0.77091  0.24948  0.42309  Biso   1.000  H
  H47      1.0000 0.24949  0.77090  0.72633  Biso   1.000  H
  H48      1.0000 0.24949  0.55272  0.94451  Biso   1.000  H
  C49      1.0000 0.17936  0.17935  0.84070  Biso   1.000  C
  C50      1.0000 0.17936  0.17935  0.97041  Biso   1.000  C
  C51      1.0000 0.66710  0.79680  0.35295  Biso   1.000  C
  C52      1.0000 0.79681  0.66709  0.35295  Biso   1.000  C
  C53      1.0000 0.17936  0.66709  0.97041  Biso   1.000  C
  C54      1.0000 0.17936  0.79680  0.84070  Biso   1.000  C
  C55      1.0000 0.66710  0.17935  0.35295  Biso   1.000  C
  C56      1.0000 0.79681  0.17935  0.35295  Biso   1.000  C
  C57      1.0000 0.17936  0.79680  0.35295  Biso   1.000  C
  C58      1.0000 0.17936  0.66709  0.35295  Biso   1.000  C
  C59      1.0000 0.66710  0.17935  0.97041  Biso   1.000  C
  C60      1.0000 0.79681  0.17935  0.84070  Biso   1.000  C
  C61      1.0000 0.23196  0.23195  0.91781  Biso   1.000  C
  C62      1.0000 0.23196  0.23195  0.78810  Biso   1.000  C
  C63      1.0000 0.61450  0.74420  0.40555  Biso   1.000  C
  C64      1.0000 0.74421  0.61449  0.40555  Biso   1.000  C
  C65      1.0000 0.74421  0.23195  0.78810  Biso   1.000  C
  C66      1.0000 0.61450  0.23195  0.91781  Biso   1.000  C
  C67      1.0000 0.23196  0.74420  0.40555  Biso   1.000  C
  C68      1.0000 0.23196  0.61449  0.40555  Biso   1.000  C
  C69      1.0000 0.61450  0.23195  0.40555  Biso   1.000  C
  C70      1.0000 0.74421  0.23195  0.40555  Biso   1.000  C
  C71      1.0000 0.23196  0.74420  0.78810  Biso   1.000  C
  C72      1.0000 0.23196  0.61449  0.91781  Biso   1.000  C
  C73      1.0000 0.09468  0.09467  0.99213  Biso   1.000  C
  C74      1.0000 0.15216  0.15215  0.93465  Biso   1.000  C
  C75      1.0000 0.81853  0.81852  0.26828  Biso   1.000  C
  C76      1.0000 0.76105  0.76104  0.32576  Biso   1.000  C
  C77      1.0000 0.09468  0.81852  0.99213  Biso   1.000  C
  C78      1.0000 0.15216  0.76104  0.93465  Biso   1.000  C
  C79      1.0000 0.81853  0.09467  0.26828  Biso   1.000  C
  C80      1.0000 0.76105  0.15215  0.32576  Biso   1.000  C
  C81      1.0000 0.09468  0.81852  0.26828  Biso   1.000  C
  C82      1.0000 0.15216  0.76104  0.32576  Biso   1.000  C
  C83      1.0000 0.81853  0.09467  0.99213  Biso   1.000  C
  C84      1.0000 0.76105  0.15215  0.93465  Biso   1.000  C
  C85      1.0000 0.31663  0.31662  0.76638  Biso   1.000  C
  C86      1.0000 0.25915  0.25914  0.82386  Biso   1.000  C
  C87      1.0000 0.59278  0.59277  0.49023  Biso   1.000  C
  C88      1.0000 0.65026  0.65025  0.43275  Biso   1.000  C
  C89      1.0000 0.59278  0.31662  0.76638  Biso   1.000  C
  C90      1.0000 0.65026  0.25914  0.82386  Biso   1.000  C
  C91      1.0000 0.31663  0.59277  0.49023  Biso   1.000  C
  C92      1.0000 0.25915  0.65025  0.43275  Biso   1.000  C
  C93      1.0000 0.59278  0.31662  0.49023  Biso   1.000  C
  C94      1.0000 0.65026  0.25914  0.43275  Biso   1.000  C
  C95      1.0000 0.31663  0.59277  0.76638  Biso   1.000  C
  C96      1.0000 0.25915  0.65025  0.82386  Biso   1.000  C
  O27      1.0000 0.95661  0.95660  0.13020  Biso   1.000  O
  O28      1.0000 0.45471  0.45470  0.62831  Biso   1.000  O
  O29      1.0000 0.07221  0.07220  0.95410  Biso   1.000  O
  O30      1.0000 0.07221  0.07220  0.07508  Biso   1.000  O
  O31      1.0000 0.78051  0.90148  0.24581  Biso   1.000  O
  O32      1.0000 0.90149  0.78050  0.24581  Biso   1.000  O
  O33      1.0000 0.07221  0.78050  0.07508  Biso   1.000  O
  O34      1.0000 0.07221  0.90148  0.95410  Biso   1.000  O
  O35      1.0000 0.78051  0.07220  0.24581  Biso   1.000  O
  O36      1.0000 0.90149  0.07220  0.24581  Biso   1.000  O
  O37      1.0000 0.07221  0.90148  0.24581  Biso   1.000  O
  O38      1.0000 0.07221  0.78050  0.24581  Biso   1.000  O
  O39      1.0000 0.78051  0.07220  0.07508  Biso   1.000  O
  O40      1.0000 0.90149  0.07220  0.95410  Biso   1.000  O
  O41      1.0000 0.33910  0.33909  0.80440  Biso   1.000  O
  O42      1.0000 0.33910  0.33909  0.68343  Biso   1.000  O
  O43      1.0000 0.50983  0.63080  0.51270  Biso   1.000  O
  O44      1.0000 0.63081  0.50982  0.51270  Biso   1.000  O
  O45      1.0000 0.63081  0.33909  0.68343  Biso   1.000  O
  O46      1.0000 0.50983  0.33909  0.80440  Biso   1.000  O
  O47      1.0000 0.33910  0.63080  0.51270  Biso   1.000  O
  O48      1.0000 0.33910  0.50982  0.51270  Biso   1.000  O
  O49      1.0000 0.50983  0.33909  0.51270  Biso   1.000  O
  O50      1.0000 0.63081  0.33909  0.51270  Biso   1.000  O
  O51      1.0000 0.33910  0.63080  0.68343  Biso   1.000  O
