data_image0
_cell_length_a       18.1507
_cell_length_b       18.1507
_cell_length_c       18.1507
_cell_angle_alpha    60
_cell_angle_beta     60
_cell_angle_gamma    60

_symmetry_space_group_name_H-M    "P 1"
_symmetry_int_tables_number       1

loop_
  _symmetry_equiv_pos_as_xyz
  'x, y, z'

loop_
  _atom_site_label
  _atom_site_occupancy
  _atom_site_fract_x
  _atom_site_fract_y
  _atom_site_fract_z
  _atom_site_thermal_displace_type
  _atom_site_B_iso_or_equiv
  _atom_site_type_symbol
  Zn1      1.0000 0.29350  0.29350  0.29350  Biso   1.000  Zn
  Zn2      1.0000 0.29350  0.29350  0.11950  Biso   1.000  Zn
  Zn3      1.0000 0.29350  0.11950  0.29350  Biso   1.000  Zn
  Zn4      1.0000 0.11950  0.29350  0.29350  Biso   1.000  Zn
  Zn5      1.0000 0.70650  0.70650  0.70650  Biso   1.000  Zn
  Zn6      1.0000 0.70650  0.70650  0.88050  Biso   1.000  Zn
  Zn7      1.0000 0.88050  0.70650  0.70650  Biso   1.000  Zn
  Zn8      1.0000 0.70650  0.88050  0.70650  Biso   1.000  Zn
  H1       1.0000 0.45480  0.45480  0.15700  Biso   1.000  H
  H2       1.0000 0.45480  0.45480  0.93340  Biso   1.000  H
  H3       1.0000 0.15700  0.93340  0.45480  Biso   1.000  H
  H4       1.0000 0.93340  0.15700  0.45480  Biso   1.000  H
  H5       1.0000 0.45480  0.15700  0.93340  Biso   1.000  H
  H6       1.0000 0.45480  0.93340  0.15700  Biso   1.000  H
  H7       1.0000 0.15700  0.45480  0.45480  Biso   1.000  H
  H8       1.0000 0.93340  0.45480  0.45480  Biso   1.000  H
  H9       1.0000 0.45480  0.93340  0.45480  Biso   1.000  H
  H10      1.0000 0.45480  0.15700  0.45480  Biso   1.000  H
  H11      1.0000 0.15700  0.45480  0.93340  Biso   1.000  H
  H12      1.0000 0.93340  0.45480  0.15700  Biso   1.000  H
  H13      1.0000 0.54520  0.54520  0.84300  Biso   1.000  H
  H14      1.0000 0.54520  0.54520  0.06660  Biso   1.000  H
  H15      1.0000 0.06660  0.84300  0.54520  Biso   1.000  H
  H16      1.0000 0.84300  0.06660  0.54520  Biso   1.000  H
  H17      1.0000 0.84300  0.54520  0.06660  Biso   1.000  H
  H18      1.0000 0.06660  0.54520  0.84300  Biso   1.000  H
  H19      1.0000 0.54520  0.84300  0.54520  Biso   1.000  H
  H20      1.0000 0.54520  0.06660  0.54520  Biso   1.000  H
  H21      1.0000 0.06660  0.54520  0.54520  Biso   1.000  H
  H22      1.0000 0.84300  0.54520  0.54520  Biso   1.000  H
  H23      1.0000 0.54520  0.84300  0.06660  Biso   1.000  H
  H24      1.0000 0.54520  0.06660  0.84300  Biso   1.000  H
  C1       1.0000 0.47370  0.47370  0.09250  Biso   1.000  C
  C2       1.0000 0.47370  0.47370  0.96010  Biso   1.000  C
  C3       1.0000 0.09250  0.96010  0.47370  Biso   1.000  C
  C4       1.0000 0.96010  0.09250  0.47370  Biso   1.000  C
  C5       1.0000 0.47370  0.09250  0.96010  Biso   1.000  C
  C6       1.0000 0.47370  0.96010  0.09250  Biso   1.000  C
  C7       1.0000 0.09250  0.47370  0.47370  Biso   1.000  C
  C8       1.0000 0.96010  0.47370  0.47370  Biso   1.000  C
  C9       1.0000 0.47370  0.96010  0.47370  Biso   1.000  C
  C10      1.0000 0.47370  0.09250  0.47370  Biso   1.000  C
  C11      1.0000 0.09250  0.47370  0.96010  Biso   1.000  C
  C12      1.0000 0.96010  0.47370  0.09250  Biso   1.000  C
  C13      1.0000 0.52630  0.52630  0.90750  Biso   1.000  C
  C14      1.0000 0.52630  0.52630  0.03990  Biso   1.000  C
  C15      1.0000 0.03990  0.90750  0.52630  Biso   1.000  C
  C16      1.0000 0.90750  0.03990  0.52630  Biso   1.000  C
  C17      1.0000 0.90750  0.52630  0.03990  Biso   1.000  C
  C18      1.0000 0.03990  0.52630  0.90750  Biso   1.000  C
  C19      1.0000 0.52630  0.90750  0.52630  Biso   1.000  C
  C20      1.0000 0.52630  0.03990  0.52630  Biso   1.000  C
  C21      1.0000 0.03990  0.52630  0.52630  Biso   1.000  C
  C22      1.0000 0.90750  0.52630  0.52630  Biso   1.000  C
  C23      1.0000 0.52630  0.90750  0.03990  Biso   1.000  C
  C24      1.0000 0.52630  0.03990  0.90750  Biso   1.000  C
  C25      1.0000 0.38950  0.38950  0.11050  Biso   1.000  C
  C26      1.0000 0.44620  0.44620  0.05380  Biso   1.000  C
  C27      1.0000 0.11050  0.11050  0.38950  Biso   1.000  C
  C28      1.0000 0.05380  0.05380  0.44620  Biso   1.000  C
  C29      1.0000 0.38950  0.11050  0.11050  Biso   1.000  C
  C30      1.0000 0.44620  0.05380  0.05380  Biso   1.000  C
  C31      1.0000 0.11050  0.38950  0.38950  Biso   1.000  C
  C32      1.0000 0.05380  0.44620  0.44620  Biso   1.000  C
  C33      1.0000 0.38950  0.11050  0.38950  Biso   1.000  C
  C34      1.0000 0.44620  0.05380  0.44620  Biso   1.000  C
  C35      1.0000 0.11050  0.38950  0.11050  Biso   1.000  C
  C36      1.0000 0.05380  0.44620  0.05380  Biso   1.000  C
  C37      1.0000 0.61050  0.61050  0.88950  Biso   1.000  C
  C38      1.0000 0.55380  0.55380  0.94620  Biso   1.000  C
  C39      1.0000 0.88950  0.88950  0.61050  Biso   1.000  C
  C40      1.0000 0.94620  0.94620  0.55380  Biso   1.000  C
  C41      1.0000 0.88950  0.61050  0.88950  Biso   1.000  C
  C42      1.0000 0.94620  0.55380  0.94620  Biso   1.000  C
  C43      1.0000 0.61050  0.88950  0.61050  Biso   1.000  C
  C44      1.0000 0.55380  0.94620  0.55380  Biso   1.000  C
  C45      1.0000 0.88950  0.61050  0.61050  Biso   1.000  C
  C46      1.0000 0.94620  0.55380  0.55380  Biso   1.000  C
  C47      1.0000 0.61050  0.88950  0.88950  Biso   1.000  C
  C48      1.0000 0.55380  0.94620  0.94620  Biso   1.000  C
  O1       1.0000 0.25000  0.25000  0.25000  Biso   1.000  O
  O2       1.0000 0.75000  0.75000  0.75000  Biso   1.000  O
  O3       1.0000 0.36610  0.36610  0.19750  Biso   1.000  O
  O4       1.0000 0.36610  0.36610  0.07030  Biso   1.000  O
  O5       1.0000 0.19750  0.07030  0.36610  Biso   1.000  O
  O6       1.0000 0.07030  0.19750  0.36610  Biso   1.000  O
  O7       1.0000 0.36610  0.19750  0.07030  Biso   1.000  O
  O8       1.0000 0.36610  0.07030  0.19750  Biso   1.000  O
  O9       1.0000 0.19750  0.36610  0.36610  Biso   1.000  O
  O10      1.0000 0.07030  0.36610  0.36610  Biso   1.000  O
  O11      1.0000 0.36610  0.07030  0.36610  Biso   1.000  O
  O12      1.0000 0.36610  0.19750  0.36610  Biso   1.000  O
  O13      1.0000 0.19750  0.36610  0.07030  Biso   1.000  O
  O14      1.0000 0.07030  0.36610  0.19750  Biso   1.000  O
  O15      1.0000 0.63390  0.63390  0.80250  Biso   1.000  O
  O16      1.0000 0.63390  0.63390  0.92970  Biso   1.000  O
  O17      1.0000 0.92970  0.80250  0.63390  Biso   1.000  O
  O18      1.0000 0.80250  0.92970  0.63390  Biso   1.000  O
  O19      1.0000 0.80250  0.63390  0.92970  Biso   1.000  O
  O20      1.0000 0.92970  0.63390  0.80250  Biso   1.000  O
  O21      1.0000 0.63390  0.80250  0.63390  Biso   1.000  O
  O22      1.0000 0.63390  0.92970  0.63390  Biso   1.000  O
  O23      1.0000 0.92970  0.63390  0.63390  Biso   1.000  O
  O24      1.0000 0.80250  0.63390  0.63390  Biso   1.000  O
  O25      1.0000 0.63390  0.80250  0.92970  Biso   1.000  O
  O26      1.0000 0.63390  0.92970  0.80250  Biso   1.000  O
  Zn9      1.0000 0.46028  0.43760  0.40486  Biso   1.000  Zn
  Zn10     1.0000 0.46032  0.61089  0.40481  Biso   1.000  Zn
  Zn11     1.0000 0.63361  0.43760  0.40486  Biso   1.000  Zn
  Zn12     1.0000 0.46033  0.43756  0.57814  Biso   1.000  Zn
  Zn13     1.0000 0.04698  0.02423  0.99150  Biso   1.000  Zn
  Zn14     1.0000 0.04693  0.85095  0.99155  Biso   1.000  Zn
  Zn15     1.0000 0.87365  0.02423  0.99150  Biso   1.000  Zn
  Zn16     1.0000 0.04693  0.02428  0.81822  Biso   1.000  Zn
  C49      1.0000 0.27985  0.63850  0.22539  Biso   1.000  C
  C50      1.0000 0.66143  0.25792  0.22338  Biso   1.000  C
  C51      1.0000 0.27925  0.25892  0.60576  Biso   1.000  C
  C52      1.0000 0.28087  0.76992  0.22439  Biso   1.000  C
  C53      1.0000 0.27886  0.77094  0.60596  Biso   1.000  C
  C54      1.0000 0.66124  0.76973  0.22378  Biso   1.000  C
  C55      1.0000 0.79262  0.25813  0.60575  Biso   1.000  C
  C56      1.0000 0.79363  0.25612  0.22518  Biso   1.000  C
  C57      1.0000 0.79242  0.63851  0.22618  Biso   1.000  C
  C58      1.0000 0.66118  0.25712  0.73719  Biso   1.000  C
  C59      1.0000 0.28060  0.63870  0.73820  Biso   1.000  C
  C60      1.0000 0.28161  0.25651  0.73700  Biso   1.000  C
  C61      1.0000 0.22741  0.82334  0.17097  Biso   1.000  C
  C62      1.0000 0.84583  0.20392  0.17298  Biso   1.000  C
  C63      1.0000 0.22801  0.20292  0.79060  Biso   1.000  C
  C64      1.0000 0.22639  0.69191  0.17197  Biso   1.000  C
  C65      1.0000 0.22840  0.69090  0.79040  Biso   1.000  C
  C66      1.0000 0.84602  0.69210  0.17258  Biso   1.000  C
  C67      1.0000 0.71464  0.20371  0.79061  Biso   1.000  C
  C68      1.0000 0.71363  0.20572  0.17118  Biso   1.000  C
  C69      1.0000 0.71484  0.82333  0.17018  Biso   1.000  C
  C70      1.0000 0.84608  0.20471  0.65917  Biso   1.000  C
  C71      1.0000 0.22666  0.82314  0.65816  Biso   1.000  C
  C72      1.0000 0.22565  0.20532  0.65936  Biso   1.000  C
  C73      1.0000 0.30744  0.67710  0.25198  Biso   1.000  C
  C74      1.0000 0.36612  0.61843  0.31065  Biso   1.000  C
  C75      1.0000 0.69983  0.28472  0.64436  Biso   1.000  C
  C76      1.0000 0.64115  0.34340  0.58568  Biso   1.000  C
  C77      1.0000 0.19982  0.78473  0.14438  Biso   1.000  C
  C78      1.0000 0.14114  0.84341  0.08570  Biso   1.000  C
  C79      1.0000 0.80743  0.17712  0.75200  Biso   1.000  C
  C80      1.0000 0.86611  0.11844  0.81068  Biso   1.000  C
  C81      1.0000 0.30725  0.28452  0.64456  Biso   1.000  C
  C82      1.0000 0.36564  0.34292  0.58616  Biso   1.000  C
  C83      1.0000 0.70002  0.67730  0.25178  Biso   1.000  C
  C84      1.0000 0.64163  0.61891  0.31017  Biso   1.000  C
  C85      1.0000 0.20001  0.17732  0.75180  Biso   1.000  C
  C86      1.0000 0.14162  0.11892  0.81020  Biso   1.000  C
  C87      1.0000 0.80724  0.78453  0.14458  Biso   1.000  C
  C88      1.0000 0.86563  0.84293  0.08618  Biso   1.000  C
  C89      1.0000 0.70023  0.28432  0.25158  Biso   1.000  C
  C90      1.0000 0.64183  0.34272  0.30997  Biso   1.000  C
  C91      1.0000 0.30704  0.67751  0.64476  Biso   1.000  C
  C92      1.0000 0.36544  0.61911  0.58636  Biso   1.000  C
  C93      1.0000 0.80703  0.17752  0.14478  Biso   1.000  C
  C94      1.0000 0.86543  0.11912  0.08638  Biso   1.000  C
  C95      1.0000 0.20022  0.78433  0.75160  Biso   1.000  C
  C96      1.0000 0.14182  0.84273  0.81000  Biso   1.000  C
  O27      1.0000 0.38872  0.53419  0.33165  Biso   1.000  O
  O28      1.0000 0.38678  0.36600  0.50228  Biso   1.000  O
  O29      1.0000 0.55649  0.36564  0.33207  Biso   1.000  O
  O30      1.0000 0.38712  0.65907  0.33325  Biso   1.000  O
  O31      1.0000 0.55775  0.65857  0.33131  Biso   1.000  O
  O32      1.0000 0.38754  0.65943  0.50102  Biso   1.000  O
  O33      1.0000 0.68179  0.36440  0.50144  Biso   1.000  O
  O34      1.0000 0.68129  0.53503  0.33325  Biso   1.000  O
  O35      1.0000 0.68215  0.36482  0.33289  Biso   1.000  O
  O36      1.0000 0.55691  0.36600  0.62632  Biso   1.000  O
  O37      1.0000 0.38872  0.36406  0.62582  Biso   1.000  O
  O38      1.0000 0.38836  0.53377  0.62668  Biso   1.000  O
  O39      1.0000 0.11854  0.92765  0.06470  Biso   1.000  O
  O40      1.0000 0.12048  0.09584  0.89407  Biso   1.000  O
  O41      1.0000 0.95076  0.09620  0.06428  Biso   1.000  O
  O42      1.0000 0.12014  0.80277  0.06310  Biso   1.000  O
  O43      1.0000 0.94951  0.80327  0.06504  Biso   1.000  O
  O44      1.0000 0.11972  0.80241  0.89533  Biso   1.000  O
  O45      1.0000 0.82547  0.09744  0.89491  Biso   1.000  O
  O46      1.0000 0.82597  0.92681  0.06310  Biso   1.000  O
  O47      1.0000 0.82511  0.09702  0.06346  Biso   1.000  O
  O48      1.0000 0.95034  0.09584  0.77004  Biso   1.000  O
  O49      1.0000 0.11854  0.09778  0.77054  Biso   1.000  O
  O50      1.0000 0.11890  0.92807  0.76968  Biso   1.000  O
  O51      1.0000 0.50363  0.48091  0.44817  Biso   1.000  O
  O52      1.0000 0.00362  0.98093  0.94819  Biso   1.000  O
  H25      1.0000 0.58484  0.28087  0.24485  Biso   1.000  H
  H26      1.0000 0.82581  0.27759  0.24813  Biso   1.000  H
  H27      1.0000 0.92242  0.18097  0.15151  Biso   1.000  H
  H28      1.0000 0.68145  0.18425  0.14823  Biso   1.000  H
  H29      1.0000 0.82460  0.56192  0.24938  Biso   1.000  H
  H30      1.0000 0.92260  0.65992  0.15137  Biso   1.000  H
  H31      1.0000 0.30046  0.28212  0.52917  Biso   1.000  H
  H32      1.0000 0.20245  0.18411  0.62718  Biso   1.000  H
  H33      1.0000 0.30349  0.80211  0.24618  Biso   1.000  H
  H34      1.0000 0.30033  0.80312  0.52936  Biso   1.000  H
  H35      1.0000 0.92268  0.18292  0.62698  Biso   1.000  H
  H36      1.0000 0.20371  0.89973  0.62598  Biso   1.000  H
  H37      1.0000 0.58466  0.80191  0.24499  Biso   1.000  H
  H38      1.0000 0.68266  0.89992  0.14698  Biso   1.000  H
  H39      1.0000 0.30481  0.27772  0.76918  Biso   1.000  H
  H40      1.0000 0.20680  0.17972  0.86718  Biso   1.000  H
  H41      1.0000 0.68245  0.18109  0.86720  Biso   1.000  H
  H42      1.0000 0.30355  0.56210  0.77038  Biso   1.000  H
  H43      1.0000 0.20693  0.65872  0.86699  Biso   1.000  H
  H44      1.0000 0.58458  0.27891  0.76938  Biso   1.000  H
  H45      1.0000 0.20377  0.65972  0.15018  Biso   1.000  H
  H46      1.0000 0.30164  0.56190  0.24801  Biso   1.000  H
  H47      1.0000 0.20562  0.89994  0.14835  Biso   1.000  H
