data_image0
_cell_length_a       18.1507
_cell_length_b       18.1507
_cell_length_c       18.1507
_cell_angle_alpha    60
_cell_angle_beta     60
_cell_angle_gamma    60

_symmetry_space_group_name_H-M    "P 1"
_symmetry_int_tables_number       1

loop_
  _symmetry_equiv_pos_as_xyz
  'x, y, z'

loop_
  _atom_site_label
  _atom_site_occupancy
  _atom_site_fract_x
  _atom_site_fract_y
  _atom_site_fract_z
  _atom_site_thermal_displace_type
  _atom_site_B_iso_or_equiv
  _atom_site_type_symbol
  C1       1.0000 0.29350  0.29350  0.29350  Biso   1.000  C
  C2       1.0000 0.29350  0.29350  0.11950  Biso   1.000  C
  C3       1.0000 0.29350  0.11950  0.29350  Biso   1.000  C
  C4       1.0000 0.11950  0.29350  0.29350  Biso   1.000  C
  C5       1.0000 0.70650  0.70650  0.70650  Biso   1.000  C
  C6       1.0000 0.70650  0.70650  0.88050  Biso   1.000  C
  C7       1.0000 0.88050  0.70650  0.70650  Biso   1.000  C
  C8       1.0000 0.70650  0.88050  0.70650  Biso   1.000  C
  C9       1.0000 0.45480  0.45480  0.15700  Biso   1.000  C
  C10      1.0000 0.45480  0.45480  0.93340  Biso   1.000  C
  C11      1.0000 0.15700  0.93340  0.45480  Biso   1.000  C
  C12      1.0000 0.93340  0.15700  0.45480  Biso   1.000  C
  C13      1.0000 0.45480  0.15700  0.93340  Biso   1.000  C
  C14      1.0000 0.45480  0.93340  0.15700  Biso   1.000  C
  C15      1.0000 0.15700  0.45480  0.45480  Biso   1.000  C
  C16      1.0000 0.93340  0.45480  0.45480  Biso   1.000  C
  C17      1.0000 0.45480  0.93340  0.45480  Biso   1.000  C
  C18      1.0000 0.45480  0.15700  0.45480  Biso   1.000  C
  C19      1.0000 0.15700  0.45480  0.93340  Biso   1.000  C
  C20      1.0000 0.93340  0.45480  0.15700  Biso   1.000  C
  C21      1.0000 0.54520  0.54520  0.84300  Biso   1.000  C
  C22      1.0000 0.54520  0.54520  0.06660  Biso   1.000  C
  C23      1.0000 0.06660  0.84300  0.54520  Biso   1.000  C
  C24      1.0000 0.84300  0.06660  0.54520  Biso   1.000  C
  C25      1.0000 0.84300  0.54520  0.06660  Biso   1.000  C
  C26      1.0000 0.06660  0.54520  0.84300  Biso   1.000  C
  C27      1.0000 0.54520  0.84300  0.54520  Biso   1.000  C
  C28      1.0000 0.54520  0.06660  0.54520  Biso   1.000  C
  C29      1.0000 0.06660  0.54520  0.54520  Biso   1.000  C
  C30      1.0000 0.84300  0.54520  0.54520  Biso   1.000  C
  C31      1.0000 0.54520  0.84300  0.06660  Biso   1.000  C
  C32      1.0000 0.54520  0.06660  0.84300  Biso   1.000  C
  C33      1.0000 0.47370  0.47370  0.09250  Biso   1.000  C
  C34      1.0000 0.47370  0.47370  0.96010  Biso   1.000  C
  C35      1.0000 0.09250  0.96010  0.47370  Biso   1.000  C
  C36      1.0000 0.96010  0.09250  0.47370  Biso   1.000  C
  C37      1.0000 0.47370  0.09250  0.96010  Biso   1.000  C
  C38      1.0000 0.47370  0.96010  0.09250  Biso   1.000  C
  C39      1.0000 0.09250  0.47370  0.47370  Biso   1.000  C
  C40      1.0000 0.96010  0.47370  0.47370  Biso   1.000  C
  C41      1.0000 0.47370  0.96010  0.47370  Biso   1.000  C
  C42      1.0000 0.47370  0.09250  0.47370  Biso   1.000  C
  C43      1.0000 0.09250  0.47370  0.96010  Biso   1.000  C
  C44      1.0000 0.96010  0.47370  0.09250  Biso   1.000  C
  C45      1.0000 0.52630  0.52630  0.90750  Biso   1.000  C
  C46      1.0000 0.52630  0.52630  0.03990  Biso   1.000  C
  C47      1.0000 0.03990  0.90750  0.52630  Biso   1.000  C
  C48      1.0000 0.90750  0.03990  0.52630  Biso   1.000  C
  C49      1.0000 0.90750  0.52630  0.03990  Biso   1.000  C
  C50      1.0000 0.03990  0.52630  0.90750  Biso   1.000  C
  C51      1.0000 0.52630  0.90750  0.52630  Biso   1.000  C
  C52      1.0000 0.52630  0.03990  0.52630  Biso   1.000  C
  C53      1.0000 0.03990  0.52630  0.52630  Biso   1.000  C
  C54      1.0000 0.90750  0.52630  0.52630  Biso   1.000  C
  C55      1.0000 0.52630  0.90750  0.03990  Biso   1.000  C
  C56      1.0000 0.52630  0.03990  0.90750  Biso   1.000  C
  C57      1.0000 0.38950  0.38950  0.11050  Biso   1.000  C
  C58      1.0000 0.44620  0.44620  0.05380  Biso   1.000  C
  C59      1.0000 0.11050  0.11050  0.38950  Biso   1.000  C
  C60      1.0000 0.05380  0.05380  0.44620  Biso   1.000  C
  C61      1.0000 0.38950  0.11050  0.11050  Biso   1.000  C
  C62      1.0000 0.44620  0.05380  0.05380  Biso   1.000  C
  C63      1.0000 0.11050  0.38950  0.38950  Biso   1.000  C
  C64      1.0000 0.05380  0.44620  0.44620  Biso   1.000  C
  C65      1.0000 0.38950  0.11050  0.38950  Biso   1.000  C
  C66      1.0000 0.44620  0.05380  0.44620  Biso   1.000  C
  C67      1.0000 0.11050  0.38950  0.11050  Biso   1.000  C
  C68      1.0000 0.05380  0.44620  0.05380  Biso   1.000  C
  C69      1.0000 0.61050  0.61050  0.88950  Biso   1.000  C
  C70      1.0000 0.55380  0.55380  0.94620  Biso   1.000  C
  C71      1.0000 0.88950  0.88950  0.61050  Biso   1.000  C
  C72      1.0000 0.94620  0.94620  0.55380  Biso   1.000  C
  C73      1.0000 0.88950  0.61050  0.88950  Biso   1.000  C
  C74      1.0000 0.94620  0.55380  0.94620  Biso   1.000  C
  C75      1.0000 0.61050  0.88950  0.61050  Biso   1.000  C
  C76      1.0000 0.55380  0.94620  0.55380  Biso   1.000  C
  C77      1.0000 0.88950  0.61050  0.61050  Biso   1.000  C
  C78      1.0000 0.94620  0.55380  0.55380  Biso   1.000  C
  C79      1.0000 0.61050  0.88950  0.88950  Biso   1.000  C
  C80      1.0000 0.55380  0.94620  0.94620  Biso   1.000  C
  C81      1.0000 0.25000  0.25000  0.25000  Biso   1.000  C
  C82      1.0000 0.75000  0.75000  0.75000  Biso   1.000  C
  C83      1.0000 0.36610  0.36610  0.19750  Biso   1.000  C
  C84      1.0000 0.36610  0.36610  0.07030  Biso   1.000  C
  C85      1.0000 0.19750  0.07030  0.36610  Biso   1.000  C
  C86      1.0000 0.07030  0.19750  0.36610  Biso   1.000  C
  C87      1.0000 0.36610  0.19750  0.07030  Biso   1.000  C
  C88      1.0000 0.36610  0.07030  0.19750  Biso   1.000  C
  C89      1.0000 0.19750  0.36610  0.36610  Biso   1.000  C
  C90      1.0000 0.07030  0.36610  0.36610  Biso   1.000  C
  C91      1.0000 0.36610  0.07030  0.36610  Biso   1.000  C
  C92      1.0000 0.36610  0.19750  0.36610  Biso   1.000  C
  C93      1.0000 0.19750  0.36610  0.07030  Biso   1.000  C
  C94      1.0000 0.07030  0.36610  0.19750  Biso   1.000  C
  C95      1.0000 0.63390  0.63390  0.80250  Biso   1.000  C
  C96      1.0000 0.63390  0.63390  0.92970  Biso   1.000  C
  C97      1.0000 0.92970  0.80250  0.63390  Biso   1.000  C
  C98      1.0000 0.80250  0.92970  0.63390  Biso   1.000  C
  C99      1.0000 0.80250  0.63390  0.92970  Biso   1.000  C
  C100     1.0000 0.92970  0.63390  0.80250  Biso   1.000  C
  C101     1.0000 0.63390  0.80250  0.63390  Biso   1.000  C
  C102     1.0000 0.63390  0.92970  0.63390  Biso   1.000  C
  C103     1.0000 0.92970  0.63390  0.63390  Biso   1.000  C
  C104     1.0000 0.80250  0.63390  0.63390  Biso   1.000  C
  C105     1.0000 0.63390  0.80250  0.92970  Biso   1.000  C
  C106     1.0000 0.63390  0.92970  0.80250  Biso   1.000  C
  O1       1.0000 0.48050  0.34764  0.67476  Biso   1.000  O
  O2       1.0000 0.65562  0.34764  0.49964  Biso   1.000  O
  O3       1.0000 0.48050  0.34764  0.49964  Biso   1.000  O
  O4       1.0000 0.48050  0.52276  0.49964  Biso   1.000  O
  O5       1.0000 0.08010  0.93118  0.90805  Biso   1.000  O
  O6       1.0000 0.90498  0.93118  0.08318  Biso   1.000  O
  O7       1.0000 0.08010  0.75605  0.08318  Biso   1.000  O
  O8       1.0000 0.08010  0.93118  0.08318  Biso   1.000  O
  O9       1.0000 0.62827  0.18457  0.85312  Biso   1.000  O
  O10      1.0000 0.84201  0.18457  0.63938  Biso   1.000  O
  O11      1.0000 0.32546  0.48738  0.33657  Biso   1.000  O
  O12      1.0000 0.32546  0.70111  0.33657  Biso   1.000  O
  O13      1.0000 0.32546  0.70111  0.63938  Biso   1.000  O
  O14      1.0000 0.32546  0.48738  0.85312  Biso   1.000  O
  O15      1.0000 0.62827  0.18457  0.33657  Biso   1.000  O
  O16      1.0000 0.84201  0.18457  0.33657  Biso   1.000  O
  O17      1.0000 0.84201  0.48738  0.33657  Biso   1.000  O
  O18      1.0000 0.62827  0.70111  0.33657  Biso   1.000  O
  O19      1.0000 0.32546  0.18457  0.63938  Biso   1.000  O
  O20      1.0000 0.32546  0.18457  0.85312  Biso   1.000  O
  O21      1.0000 0.93233  0.09425  0.72970  Biso   1.000  O
  O22      1.0000 0.71859  0.09425  0.94344  Biso   1.000  O
  O23      1.0000 0.23514  0.57770  0.24625  Biso   1.000  O
  O24      1.0000 0.23514  0.79143  0.24625  Biso   1.000  O
  O25      1.0000 0.23514  0.09425  0.94344  Biso   1.000  O
  O26      1.0000 0.23514  0.09425  0.72970  Biso   1.000  O
  O27      1.0000 0.93233  0.57770  0.24625  Biso   1.000  O
  O28      1.0000 0.71859  0.79143  0.24625  Biso   1.000  O
  O29      1.0000 0.71859  0.09425  0.24625  Biso   1.000  O
  O30      1.0000 0.93233  0.09425  0.24625  Biso   1.000  O
  O31      1.0000 0.23514  0.57770  0.94344  Biso   1.000  O
  O32      1.0000 0.23514  0.79143  0.72970  Biso   1.000  O
  O33      1.0000 0.69211  0.16623  0.82595  Biso   1.000  O
  O34      1.0000 0.81484  0.16623  0.70322  Biso   1.000  O
  O35      1.0000 0.30712  0.55122  0.31823  Biso   1.000  O
  O36      1.0000 0.30712  0.67395  0.31823  Biso   1.000  O
  O37      1.0000 0.30712  0.67395  0.70322  Biso   1.000  O
  O38      1.0000 0.30712  0.55122  0.82595  Biso   1.000  O
  O39      1.0000 0.69211  0.16623  0.31823  Biso   1.000  O
  O40      1.0000 0.81484  0.16623  0.31823  Biso   1.000  O
  O41      1.0000 0.81484  0.55122  0.31823  Biso   1.000  O
  O42      1.0000 0.69211  0.67395  0.31823  Biso   1.000  O
  O43      1.0000 0.30712  0.16623  0.70322  Biso   1.000  O
  O44      1.0000 0.30712  0.16623  0.82595  Biso   1.000  O
  O45      1.0000 0.86849  0.11258  0.75687  Biso   1.000  O
  O46      1.0000 0.74576  0.11258  0.87960  Biso   1.000  O
  O47      1.0000 0.25348  0.60486  0.26459  Biso   1.000  O
  O48      1.0000 0.25348  0.72759  0.26459  Biso   1.000  O
  O49      1.0000 0.25348  0.11258  0.87960  Biso   1.000  O
  O50      1.0000 0.25348  0.11258  0.75687  Biso   1.000  O
  O51      1.0000 0.86849  0.60486  0.26459  Biso   1.000  O
  O52      1.0000 0.74576  0.72759  0.26459  Biso   1.000  O
  O53      1.0000 0.74576  0.11258  0.26459  Biso   1.000  O
  O54      1.0000 0.86849  0.11258  0.26459  Biso   1.000  O
  O55      1.0000 0.25348  0.60486  0.87960  Biso   1.000  O
  O56      1.0000 0.25348  0.72759  0.75687  Biso   1.000  O
  O57      1.0000 0.66379  0.25190  0.68293  Biso   1.000  O
  O58      1.0000 0.72222  0.19347  0.74137  Biso   1.000  O
  O59      1.0000 0.38476  0.53093  0.40391  Biso   1.000  O
  O60      1.0000 0.32633  0.58936  0.34547  Biso   1.000  O
  O61      1.0000 0.38476  0.53093  0.68293  Biso   1.000  O
  O62      1.0000 0.32633  0.58936  0.74137  Biso   1.000  O
  O63      1.0000 0.66379  0.25190  0.40391  Biso   1.000  O
  O64      1.0000 0.72222  0.19347  0.34547  Biso   1.000  O
  O65      1.0000 0.66379  0.53093  0.40391  Biso   1.000  O
  O66      1.0000 0.72222  0.58936  0.34547  Biso   1.000  O
  O67      1.0000 0.38476  0.25190  0.68293  Biso   1.000  O
  O68      1.0000 0.32633  0.19347  0.74137  Biso   1.000  O
  O69      1.0000 0.89681  0.02691  0.89989  Biso   1.000  O
  O70      1.0000 0.83838  0.08535  0.84145  Biso   1.000  O
  O71      1.0000 0.17584  0.74789  0.17891  Biso   1.000  O
  O72      1.0000 0.23427  0.68945  0.23735  Biso   1.000  O
  O73      1.0000 0.17584  0.02691  0.89989  Biso   1.000  O
  O74      1.0000 0.23427  0.08535  0.84145  Biso   1.000  O
  O75      1.0000 0.89681  0.74789  0.17891  Biso   1.000  O
  O76      1.0000 0.83838  0.68945  0.23735  Biso   1.000  O
  O77      1.0000 0.89681  0.02691  0.17891  Biso   1.000  O
  O78      1.0000 0.83838  0.08534  0.23735  Biso   1.000  O
  O79      1.0000 0.17584  0.74789  0.89989  Biso   1.000  O
  O80      1.0000 0.23427  0.68945  0.84145  Biso   1.000  O
  O81      1.0000 0.52428  0.39141  0.54342  Biso   1.000  O
  O82      1.0000 0.03633  0.88740  0.03940  Biso   1.000  O
  O83      1.0000 0.57979  0.27435  0.72203  Biso   1.000  O
  O84      1.0000 0.70289  0.27435  0.59893  Biso   1.000  O
  O85      1.0000 0.40721  0.44693  0.42636  Biso   1.000  O
  O86      1.0000 0.40721  0.57003  0.42636  Biso   1.000  O
  O87      1.0000 0.40721  0.57003  0.59893  Biso   1.000  O
  O88      1.0000 0.40721  0.44693  0.72203  Biso   1.000  O
  O89      1.0000 0.57979  0.27435  0.42636  Biso   1.000  O
  O90      1.0000 0.70289  0.27435  0.42636  Biso   1.000  O
  O91      1.0000 0.70289  0.44693  0.42636  Biso   1.000  O
  O92      1.0000 0.57979  0.57003  0.42636  Biso   1.000  O
  O93      1.0000 0.40721  0.27435  0.59893  Biso   1.000  O
  O94      1.0000 0.40721  0.27435  0.72203  Biso   1.000  O
  O95      1.0000 0.98081  0.00446  0.86079  Biso   1.000  O
  O96      1.0000 0.85771  0.00446  0.98389  Biso   1.000  O
  O97      1.0000 0.15339  0.70878  0.15646  Biso   1.000  O
  O98      1.0000 0.15339  0.83189  0.15646  Biso   1.000  O
  O99      1.0000 0.15339  0.00446  0.98389  Biso   1.000  O
  O100     1.0000 0.15339  0.00446  0.86079  Biso   1.000  O
  O101     1.0000 0.98081  0.70878  0.15646  Biso   1.000  O
  O102     1.0000 0.85771  0.83189  0.15646  Biso   1.000  O
  O103     1.0000 0.85771  0.00446  0.15646  Biso   1.000  O
  O104     1.0000 0.98081  0.00446  0.15646  Biso   1.000  O
  O105     1.0000 0.15339  0.70878  0.98389  Biso   1.000  O
