data_image0
_cell_length_a       18.3054
_cell_length_b       18.3054
_cell_length_c       18.3054
_cell_angle_alpha    60
_cell_angle_beta     60
_cell_angle_gamma    60

_symmetry_space_group_name_H-M    "P 1"
_symmetry_int_tables_number       1

loop_
  _symmetry_equiv_pos_as_xyz
  'x, y, z'

loop_
  _atom_site_label
  _atom_site_occupancy
  _atom_site_fract_x
  _atom_site_fract_y
  _atom_site_fract_z
  _atom_site_thermal_displace_type
  _atom_site_B_iso_or_equiv
  _atom_site_type_symbol
  C1       1.0000 0.20620  0.38140  0.20620  Biso   1.000  C
  C2       1.0000 0.38140  0.20620  0.20620  Biso   1.000  C
  C3       1.0000 0.20620  0.20620  0.20620  Biso   1.000  C
  C4       1.0000 0.20620  0.20620  0.38140  Biso   1.000  C
  C5       1.0000 0.61860  0.79380  0.79380  Biso   1.000  C
  C6       1.0000 0.79380  0.61860  0.79380  Biso   1.000  C
  C7       1.0000 0.79380  0.79380  0.79380  Biso   1.000  C
  C8       1.0000 0.79380  0.79380  0.61860  Biso   1.000  C
  C9       1.0000 0.04910  0.56290  0.04910  Biso   1.000  C
  C10      1.0000 0.56290  0.04910  0.33890  Biso   1.000  C
  C11      1.0000 0.04910  0.33890  0.04910  Biso   1.000  C
  C12      1.0000 0.33890  0.04910  0.56290  Biso   1.000  C
  C13      1.0000 0.04910  0.04910  0.33890  Biso   1.000  C
  C14      1.0000 0.56290  0.33890  0.04910  Biso   1.000  C
  C15      1.0000 0.04910  0.04910  0.56290  Biso   1.000  C
  C16      1.0000 0.33890  0.56290  0.04910  Biso   1.000  C
  C17      1.0000 0.04910  0.33890  0.56290  Biso   1.000  C
  C18      1.0000 0.56290  0.04910  0.04910  Biso   1.000  C
  C19      1.0000 0.04910  0.56290  0.33890  Biso   1.000  C
  C20      1.0000 0.33890  0.04910  0.04910  Biso   1.000  C
  C21      1.0000 0.43710  0.95090  0.95090  Biso   1.000  C
  C22      1.0000 0.95090  0.43710  0.66110  Biso   1.000  C
  C23      1.0000 0.66110  0.95090  0.95090  Biso   1.000  C
  C24      1.0000 0.95090  0.66110  0.43710  Biso   1.000  C
  C25      1.0000 0.95090  0.95090  0.66110  Biso   1.000  C
  C26      1.0000 0.66110  0.43710  0.95090  Biso   1.000  C
  C27      1.0000 0.95090  0.95090  0.43710  Biso   1.000  C
  C28      1.0000 0.43710  0.66110  0.95090  Biso   1.000  C
  C29      1.0000 0.66110  0.95090  0.43710  Biso   1.000  C
  C30      1.0000 0.95090  0.43710  0.95090  Biso   1.000  C
  C31      1.0000 0.43710  0.95090  0.66110  Biso   1.000  C
  C32      1.0000 0.95090  0.66110  0.95090  Biso   1.000  C
  C33      1.0000 0.02610  0.53970  0.02610  Biso   1.000  C
  C34      1.0000 0.53970  0.02610  0.40810  Biso   1.000  C
  C35      1.0000 0.02610  0.40810  0.02610  Biso   1.000  C
  C36      1.0000 0.40810  0.02610  0.53970  Biso   1.000  C
  C37      1.0000 0.02610  0.02610  0.40810  Biso   1.000  C
  C38      1.0000 0.53970  0.40810  0.02610  Biso   1.000  C
  C39      1.0000 0.02610  0.02610  0.53970  Biso   1.000  C
  C40      1.0000 0.40810  0.53970  0.02610  Biso   1.000  C
  C41      1.0000 0.02610  0.40810  0.53970  Biso   1.000  C
  C42      1.0000 0.53970  0.02610  0.02610  Biso   1.000  C
  C43      1.0000 0.02610  0.53970  0.40810  Biso   1.000  C
  C44      1.0000 0.40810  0.02610  0.02610  Biso   1.000  C
  C45      1.0000 0.46030  0.97390  0.97390  Biso   1.000  C
  C46      1.0000 0.97390  0.46030  0.59190  Biso   1.000  C
  C47      1.0000 0.59190  0.97390  0.97390  Biso   1.000  C
  C48      1.0000 0.97390  0.59190  0.46030  Biso   1.000  C
  C49      1.0000 0.97390  0.97390  0.59190  Biso   1.000  C
  C50      1.0000 0.59190  0.46030  0.97390  Biso   1.000  C
  C51      1.0000 0.97390  0.97390  0.46030  Biso   1.000  C
  C52      1.0000 0.46030  0.59190  0.97390  Biso   1.000  C
  C53      1.0000 0.59190  0.97390  0.46030  Biso   1.000  C
  C54      1.0000 0.97390  0.46030  0.97390  Biso   1.000  C
  C55      1.0000 0.46030  0.97390  0.59190  Biso   1.000  C
  C56      1.0000 0.97390  0.59190  0.97390  Biso   1.000  C
  C57      1.0000 0.10850  0.39150  0.10850  Biso   1.000  C
  C58      1.0000 0.05500  0.44500  0.05500  Biso   1.000  C
  C59      1.0000 0.39150  0.10850  0.39150  Biso   1.000  C
  C60      1.0000 0.44500  0.05500  0.44500  Biso   1.000  C
  C61      1.0000 0.10850  0.10850  0.39150  Biso   1.000  C
  C62      1.0000 0.05500  0.05500  0.44500  Biso   1.000  C
  C63      1.0000 0.39150  0.39150  0.10850  Biso   1.000  C
  C64      1.0000 0.44500  0.44500  0.05500  Biso   1.000  C
  C65      1.0000 0.10850  0.39150  0.39150  Biso   1.000  C
  C66      1.0000 0.05500  0.44500  0.44500  Biso   1.000  C
  C67      1.0000 0.39150  0.10850  0.10850  Biso   1.000  C
  C68      1.0000 0.44500  0.05500  0.05500  Biso   1.000  C
  C69      1.0000 0.60850  0.89150  0.89150  Biso   1.000  C
  C70      1.0000 0.55500  0.94500  0.94500  Biso   1.000  C
  C71      1.0000 0.89150  0.60850  0.60850  Biso   1.000  C
  C72      1.0000 0.94500  0.55500  0.55500  Biso   1.000  C
  C73      1.0000 0.89150  0.89150  0.60850  Biso   1.000  C
  C74      1.0000 0.94500  0.94500  0.55500  Biso   1.000  C
  C75      1.0000 0.60850  0.60850  0.89150  Biso   1.000  C
  C76      1.0000 0.55500  0.55500  0.94500  Biso   1.000  C
  C77      1.0000 0.60850  0.89150  0.60850  Biso   1.000  C
  C78      1.0000 0.55500  0.94500  0.55500  Biso   1.000  C
  C79      1.0000 0.89150  0.60850  0.89150  Biso   1.000  C
  C80      1.0000 0.94500  0.55500  0.94500  Biso   1.000  C
  C81      1.0000 0.25000  0.25000  0.25000  Biso   1.000  C
  C82      1.0000 0.75000  0.75000  0.75000  Biso   1.000  C
  C83      1.0000 0.13390  0.42730  0.13390  Biso   1.000  C
  C84      1.0000 0.42730  0.13390  0.30490  Biso   1.000  C
  C85      1.0000 0.13390  0.30490  0.13390  Biso   1.000  C
  C86      1.0000 0.30490  0.13390  0.42730  Biso   1.000  C
  C87      1.0000 0.13390  0.13390  0.30490  Biso   1.000  C
  C88      1.0000 0.42730  0.30490  0.13390  Biso   1.000  C
  C89      1.0000 0.13390  0.13390  0.42730  Biso   1.000  C
  C90      1.0000 0.30490  0.42730  0.13390  Biso   1.000  C
  C91      1.0000 0.13390  0.30490  0.42730  Biso   1.000  C
  C92      1.0000 0.42730  0.13390  0.13390  Biso   1.000  C
  C93      1.0000 0.13390  0.42730  0.30490  Biso   1.000  C
  C94      1.0000 0.30490  0.13390  0.13390  Biso   1.000  C
  C95      1.0000 0.57270  0.86610  0.86610  Biso   1.000  C
  C96      1.0000 0.86610  0.57270  0.69510  Biso   1.000  C
  C97      1.0000 0.69510  0.86610  0.86610  Biso   1.000  C
  C98      1.0000 0.86610  0.69510  0.57270  Biso   1.000  C
  C99      1.0000 0.86610  0.86610  0.69510  Biso   1.000  C
  C100     1.0000 0.69510  0.57270  0.86610  Biso   1.000  C
  C101     1.0000 0.86610  0.86610  0.57270  Biso   1.000  C
  C102     1.0000 0.57270  0.69510  0.86610  Biso   1.000  C
  C103     1.0000 0.69510  0.86610  0.57270  Biso   1.000  C
  C104     1.0000 0.86610  0.57270  0.86610  Biso   1.000  C
  C105     1.0000 0.57270  0.86610  0.69510  Biso   1.000  C
  C106     1.0000 0.86610  0.69510  0.86610  Biso   1.000  C
  O1       1.0000 0.00550  0.83851  0.13381  Biso   1.000  O
  O2       1.0000 0.83323  0.01078  0.13381  Biso   1.000  O
  O3       1.0000 0.42479  0.43008  0.72538  Biso   1.000  O
  O4       1.0000 0.00550  0.01078  0.13381  Biso   1.000  O
  O5       1.0000 0.42479  0.60235  0.55311  Biso   1.000  O
  O6       1.0000 0.42479  0.43008  0.55311  Biso   1.000  O
  O7       1.0000 0.59706  0.43008  0.55311  Biso   1.000  O
  O8       1.0000 0.00550  0.01078  0.96154  Biso   1.000  O
  O9       1.0000 0.62899  0.75693  0.37372  Biso   1.000  O
  O10      1.0000 0.18489  0.68393  0.31320  Biso   1.000  O
  O11      1.0000 0.75164  0.25069  0.37372  Biso   1.000  O
  O12      1.0000 0.15640  0.77374  0.89678  Biso   1.000  O
  O13      1.0000 0.62899  0.25069  0.87996  Biso   1.000  O
  O14      1.0000 0.76846  0.77374  0.28471  Biso   1.000  O
  O15      1.0000 0.60367  0.60895  0.46037  Biso   1.000  O
  O16      1.0000 0.67865  0.80658  0.31320  Biso   1.000  O
  O17      1.0000 0.80130  0.68393  0.31320  Biso   1.000  O
  O18      1.0000 0.15640  0.16168  0.89678  Biso   1.000  O
  O19      1.0000 0.15640  0.77374  0.28471  Biso   1.000  O
  O20      1.0000 0.24541  0.75693  0.75731  Biso   1.000  O
  O21      1.0000 0.24541  0.63428  0.37372  Biso   1.000  O
  O22      1.0000 0.09824  0.83191  0.22655  Biso   1.000  O
  O23      1.0000 0.82662  0.10352  0.95494  Biso   1.000  O
  O24      1.0000 0.60367  0.33734  0.46037  Biso   1.000  O
  O25      1.0000 0.82662  0.10352  0.22655  Biso   1.000  O
  O26      1.0000 0.82662  0.83191  0.22655  Biso   1.000  O
  O27      1.0000 0.75164  0.63428  0.37372  Biso   1.000  O
  O28      1.0000 0.80130  0.19017  0.31320  Biso   1.000  O
  O29      1.0000 0.33205  0.60895  0.46037  Biso   1.000  O
  O30      1.0000 0.67865  0.19017  0.31320  Biso   1.000  O
  O31      1.0000 0.24541  0.63428  0.87996  Biso   1.000  O
  O32      1.0000 0.09824  0.10352  0.95494  Biso   1.000  O
  O33      1.0000 0.67865  0.19017  0.92962  Biso   1.000  O
  O34      1.0000 0.60367  0.33734  0.73199  Biso   1.000  O
  O35      1.0000 0.27389  0.66712  0.40221  Biso   1.000  O
  O36      1.0000 0.62899  0.25069  0.37372  Biso   1.000  O
  O37      1.0000 0.18489  0.19017  0.80696  Biso   1.000  O
  O38      1.0000 0.09824  0.83191  0.95494  Biso   1.000  O
  O39      1.0000 0.75164  0.25069  0.75731  Biso   1.000  O
  O40      1.0000 0.18489  0.19017  0.92962  Biso   1.000  O
  O41      1.0000 0.66183  0.27918  0.79015  Biso   1.000  O
  O42      1.0000 0.24541  0.75693  0.37372  Biso   1.000  O
  O43      1.0000 0.24541  0.25069  0.75731  Biso   1.000  O
  O44      1.0000 0.33205  0.60895  0.73199  Biso   1.000  O
  O45      1.0000 0.24541  0.25069  0.87996  Biso   1.000  O
  O46      1.0000 0.18489  0.68393  0.92962  Biso   1.000  O
  O47      1.0000 0.18489  0.80658  0.80696  Biso   1.000  O
  O48      1.0000 0.76846  0.16168  0.28471  Biso   1.000  O
  O49      1.0000 0.18489  0.80658  0.31320  Biso   1.000  O
  O50      1.0000 0.66183  0.27918  0.40221  Biso   1.000  O
  O51      1.0000 0.27389  0.66712  0.79015  Biso   1.000  O
  O52      1.0000 0.33205  0.33734  0.73199  Biso   1.000  O
  O53      1.0000 0.27389  0.27918  0.79015  Biso   1.000  O
  O54      1.0000 0.76846  0.16168  0.89678  Biso   1.000  O
  O55      1.0000 0.80130  0.19017  0.80696  Biso   1.000  O
  O56      1.0000 0.66183  0.66712  0.40221  Biso   1.000  O
  O57      1.0000 0.35273  0.65097  0.48104  Biso   1.000  O
  O58      1.0000 0.35273  0.65097  0.64862  Biso   1.000  O
  O59      1.0000 0.07756  0.78989  0.20588  Biso   1.000  O
  O60      1.0000 0.52031  0.35801  0.77400  Biso   1.000  O
  O61      1.0000 0.35273  0.35801  0.77400  Biso   1.000  O
  O62      1.0000 0.07756  0.78989  0.03830  Biso   1.000  O
  O63      1.0000 0.90998  0.08285  0.91292  Biso   1.000  O
  O64      1.0000 0.07756  0.08285  0.91292  Biso   1.000  O
  O65      1.0000 0.35273  0.52559  0.48104  Biso   1.000  O
  O66      1.0000 0.64569  0.52559  0.48104  Biso   1.000  O
  O67      1.0000 0.07756  0.91527  0.20588  Biso   1.000  O
  O68      1.0000 0.35273  0.35801  0.64862  Biso   1.000  O
  O69      1.0000 0.90998  0.08285  0.20588  Biso   1.000  O
  O70      1.0000 0.78460  0.91527  0.20588  Biso   1.000  O
  O71      1.0000 0.78460  0.08285  0.20588  Biso   1.000  O
  O72      1.0000 0.35273  0.52559  0.77400  Biso   1.000  O
  O73      1.0000 0.46786  0.47315  0.59618  Biso   1.000  O
  O74      1.0000 0.52031  0.65097  0.48104  Biso   1.000  O
  O75      1.0000 0.90998  0.78989  0.20588  Biso   1.000  O
  O76      1.0000 0.78460  0.08285  0.03830  Biso   1.000  O
  O77      1.0000 0.64569  0.35801  0.48104  Biso   1.000  O
  O78      1.0000 0.07756  0.08285  0.03830  Biso   1.000  O
  O79      1.0000 0.96243  0.96771  0.09075  Biso   1.000  O
  O80      1.0000 0.52031  0.35801  0.48104  Biso   1.000  O
  O81      1.0000 0.07756  0.91527  0.91292  Biso   1.000  O
  O82      1.0000 0.64569  0.35801  0.64862  Biso   1.000  O
  O83      1.0000 0.55304  0.78885  0.39574  Biso   1.000  O
  O84      1.0000 0.16510  0.64807  0.29342  Biso   1.000  O
  O85      1.0000 0.78356  0.27271  0.39574  Biso   1.000  O
  O86      1.0000 0.55304  0.27271  0.91188  Biso   1.000  O
  O87      1.0000 0.64673  0.88254  0.29118  Biso   1.000  O
  O88      1.0000 0.87672  0.64807  0.29342  Biso   1.000  O
  O89      1.0000 0.26742  0.78885  0.68135  Biso   1.000  O
  O90      1.0000 0.26742  0.55832  0.39574  Biso   1.000  O
  O91      1.0000 0.78356  0.55832  0.39574  Biso   1.000  O
  O92      1.0000 0.87725  0.16815  0.29118  Biso   1.000  O
  O93      1.0000 0.64673  0.16815  0.29118  Biso   1.000  O
  O94      1.0000 0.26742  0.55832  0.91188  Biso   1.000  O
  O95      1.0000 0.64673  0.16815  0.00557  Biso   1.000  O
  O96      1.0000 0.55304  0.27271  0.39574  Biso   1.000  O
  O97      1.0000 0.16510  0.17039  0.77111  Biso   1.000  O
  O98      1.0000 0.78750  0.27047  0.68189  Biso   1.000  O
  O99      1.0000 0.16510  0.17039  0.00504  Biso   1.000  O
  O100     1.0000 0.26519  0.79279  0.39350  Biso   1.000  O
  O101     1.0000 0.26742  0.27271  0.68135  Biso   1.000  O
  O102     1.0000 0.26742  0.27271  0.91188  Biso   1.000  O
  O103     1.0000 0.16510  0.64807  0.00504  Biso   1.000  O
  O104     1.0000 0.16510  0.88200  0.77111  Biso   1.000  O
  O105     1.0000 0.16510  0.88200  0.29342  Biso   1.000  O
