data_image0
_cell_length_a       18.1507
_cell_length_b       18.1507
_cell_length_c       18.1507
_cell_angle_alpha    60
_cell_angle_beta     60
_cell_angle_gamma    60

_symmetry_space_group_name_H-M    "P 1"
_symmetry_int_tables_number       1

loop_
  _symmetry_equiv_pos_as_xyz
  'x, y, z'

loop_
  _atom_site_label
  _atom_site_occupancy
  _atom_site_fract_x
  _atom_site_fract_y
  _atom_site_fract_z
  _atom_site_thermal_displace_type
  _atom_site_B_iso_or_equiv
  _atom_site_type_symbol
  C1       1.0000 0.29350  0.29350  0.29350  Biso   1.000  C
  C2       1.0000 0.29350  0.29350  0.11950  Biso   1.000  C
  C3       1.0000 0.29350  0.11950  0.29350  Biso   1.000  C
  C4       1.0000 0.11950  0.29350  0.29350  Biso   1.000  C
  C5       1.0000 0.70650  0.70650  0.70650  Biso   1.000  C
  C6       1.0000 0.70650  0.70650  0.88050  Biso   1.000  C
  C7       1.0000 0.88050  0.70650  0.70650  Biso   1.000  C
  C8       1.0000 0.70650  0.88050  0.70650  Biso   1.000  C
  C9       1.0000 0.45480  0.45480  0.15700  Biso   1.000  C
  C10      1.0000 0.45480  0.45480  0.93340  Biso   1.000  C
  C11      1.0000 0.15700  0.93340  0.45480  Biso   1.000  C
  C12      1.0000 0.93340  0.15700  0.45480  Biso   1.000  C
  C13      1.0000 0.45480  0.15700  0.93340  Biso   1.000  C
  C14      1.0000 0.45480  0.93340  0.15700  Biso   1.000  C
  C15      1.0000 0.15700  0.45480  0.45480  Biso   1.000  C
  C16      1.0000 0.93340  0.45480  0.45480  Biso   1.000  C
  C17      1.0000 0.45480  0.93340  0.45480  Biso   1.000  C
  C18      1.0000 0.45480  0.15700  0.45480  Biso   1.000  C
  C19      1.0000 0.15700  0.45480  0.93340  Biso   1.000  C
  C20      1.0000 0.93340  0.45480  0.15700  Biso   1.000  C
  C21      1.0000 0.54520  0.54520  0.84300  Biso   1.000  C
  C22      1.0000 0.54520  0.54520  0.06660  Biso   1.000  C
  C23      1.0000 0.06660  0.84300  0.54520  Biso   1.000  C
  C24      1.0000 0.84300  0.06660  0.54520  Biso   1.000  C
  C25      1.0000 0.84300  0.54520  0.06660  Biso   1.000  C
  C26      1.0000 0.06660  0.54520  0.84300  Biso   1.000  C
  C27      1.0000 0.54520  0.84300  0.54520  Biso   1.000  C
  C28      1.0000 0.54520  0.06660  0.54520  Biso   1.000  C
  C29      1.0000 0.06660  0.54520  0.54520  Biso   1.000  C
  C30      1.0000 0.84300  0.54520  0.54520  Biso   1.000  C
  C31      1.0000 0.54520  0.84300  0.06660  Biso   1.000  C
  C32      1.0000 0.54520  0.06660  0.84300  Biso   1.000  C
  C33      1.0000 0.47370  0.47370  0.09250  Biso   1.000  C
  C34      1.0000 0.47370  0.47370  0.96010  Biso   1.000  C
  C35      1.0000 0.09250  0.96010  0.47370  Biso   1.000  C
  C36      1.0000 0.96010  0.09250  0.47370  Biso   1.000  C
  C37      1.0000 0.47370  0.09250  0.96010  Biso   1.000  C
  C38      1.0000 0.47370  0.96010  0.09250  Biso   1.000  C
  C39      1.0000 0.09250  0.47370  0.47370  Biso   1.000  C
  C40      1.0000 0.96010  0.47370  0.47370  Biso   1.000  C
  C41      1.0000 0.47370  0.96010  0.47370  Biso   1.000  C
  C42      1.0000 0.47370  0.09250  0.47370  Biso   1.000  C
  C43      1.0000 0.09250  0.47370  0.96010  Biso   1.000  C
  C44      1.0000 0.96010  0.47370  0.09250  Biso   1.000  C
  C45      1.0000 0.52630  0.52630  0.90750  Biso   1.000  C
  C46      1.0000 0.52630  0.52630  0.03990  Biso   1.000  C
  C47      1.0000 0.03990  0.90750  0.52630  Biso   1.000  C
  C48      1.0000 0.90750  0.03990  0.52630  Biso   1.000  C
  C49      1.0000 0.90750  0.52630  0.03990  Biso   1.000  C
  C50      1.0000 0.03990  0.52630  0.90750  Biso   1.000  C
  C51      1.0000 0.52630  0.90750  0.52630  Biso   1.000  C
  C52      1.0000 0.52630  0.03990  0.52630  Biso   1.000  C
  C53      1.0000 0.03990  0.52630  0.52630  Biso   1.000  C
  C54      1.0000 0.90750  0.52630  0.52630  Biso   1.000  C
  C55      1.0000 0.52630  0.90750  0.03990  Biso   1.000  C
  C56      1.0000 0.52630  0.03990  0.90750  Biso   1.000  C
  C57      1.0000 0.38950  0.38950  0.11050  Biso   1.000  C
  C58      1.0000 0.44620  0.44620  0.05380  Biso   1.000  C
  C59      1.0000 0.11050  0.11050  0.38950  Biso   1.000  C
  C60      1.0000 0.05380  0.05380  0.44620  Biso   1.000  C
  C61      1.0000 0.38950  0.11050  0.11050  Biso   1.000  C
  C62      1.0000 0.44620  0.05380  0.05380  Biso   1.000  C
  C63      1.0000 0.11050  0.38950  0.38950  Biso   1.000  C
  C64      1.0000 0.05380  0.44620  0.44620  Biso   1.000  C
  C65      1.0000 0.38950  0.11050  0.38950  Biso   1.000  C
  C66      1.0000 0.44620  0.05380  0.44620  Biso   1.000  C
  C67      1.0000 0.11050  0.38950  0.11050  Biso   1.000  C
  C68      1.0000 0.05380  0.44620  0.05380  Biso   1.000  C
  C69      1.0000 0.61050  0.61050  0.88950  Biso   1.000  C
  C70      1.0000 0.55380  0.55380  0.94620  Biso   1.000  C
  C71      1.0000 0.88950  0.88950  0.61050  Biso   1.000  C
  C72      1.0000 0.94620  0.94620  0.55380  Biso   1.000  C
  C73      1.0000 0.88950  0.61050  0.88950  Biso   1.000  C
  C74      1.0000 0.94620  0.55380  0.94620  Biso   1.000  C
  C75      1.0000 0.61050  0.88950  0.61050  Biso   1.000  C
  C76      1.0000 0.55380  0.94620  0.55380  Biso   1.000  C
  C77      1.0000 0.88950  0.61050  0.61050  Biso   1.000  C
  C78      1.0000 0.94620  0.55380  0.55380  Biso   1.000  C
  C79      1.0000 0.61050  0.88950  0.88950  Biso   1.000  C
  C80      1.0000 0.55380  0.94620  0.94620  Biso   1.000  C
  C81      1.0000 0.25000  0.25000  0.25000  Biso   1.000  C
  C82      1.0000 0.75000  0.75000  0.75000  Biso   1.000  C
  C83      1.0000 0.36610  0.36610  0.19750  Biso   1.000  C
  C84      1.0000 0.36610  0.36610  0.07030  Biso   1.000  C
  C85      1.0000 0.19750  0.07030  0.36610  Biso   1.000  C
  C86      1.0000 0.07030  0.19750  0.36610  Biso   1.000  C
  C87      1.0000 0.36610  0.19750  0.07030  Biso   1.000  C
  C88      1.0000 0.36610  0.07030  0.19750  Biso   1.000  C
  C89      1.0000 0.19750  0.36610  0.36610  Biso   1.000  C
  C90      1.0000 0.07030  0.36610  0.36610  Biso   1.000  C
  C91      1.0000 0.36610  0.07030  0.36610  Biso   1.000  C
  C92      1.0000 0.36610  0.19750  0.36610  Biso   1.000  C
  C93      1.0000 0.19750  0.36610  0.07030  Biso   1.000  C
  C94      1.0000 0.07030  0.36610  0.19750  Biso   1.000  C
  C95      1.0000 0.63390  0.63390  0.80250  Biso   1.000  C
  C96      1.0000 0.63390  0.63390  0.92970  Biso   1.000  C
  C97      1.0000 0.92970  0.80250  0.63390  Biso   1.000  C
  C98      1.0000 0.80250  0.92970  0.63390  Biso   1.000  C
  C99      1.0000 0.80250  0.63390  0.92970  Biso   1.000  C
  C100     1.0000 0.92970  0.63390  0.80250  Biso   1.000  C
  C101     1.0000 0.63390  0.80250  0.63390  Biso   1.000  C
  C102     1.0000 0.63390  0.92970  0.63390  Biso   1.000  C
  C103     1.0000 0.92970  0.63390  0.63390  Biso   1.000  C
  C104     1.0000 0.80250  0.63390  0.63390  Biso   1.000  C
  C105     1.0000 0.63390  0.80250  0.92970  Biso   1.000  C
  C106     1.0000 0.63390  0.92970  0.80250  Biso   1.000  C
  O1       1.0000 0.48050  0.34764  0.67476  Biso   1.000  O
  O2       1.0000 0.65566  0.34764  0.49960  Biso   1.000  O
  O3       1.0000 0.48050  0.34764  0.49960  Biso   1.000  O
  O4       1.0000 0.48050  0.52280  0.49960  Biso   1.000  O
  O5       1.0000 0.07835  0.93178  0.90859  Biso   1.000  O
  O6       1.0000 0.90319  0.93178  0.08375  Biso   1.000  O
  O7       1.0000 0.07835  0.75662  0.08375  Biso   1.000  O
  O8       1.0000 0.07835  0.93178  0.08375  Biso   1.000  O
  O9       1.0000 0.62810  0.18472  0.85299  Biso   1.000  O
  O10      1.0000 0.84074  0.18472  0.64035  Biso   1.000  O
  O11      1.0000 0.32443  0.48838  0.33668  Biso   1.000  O
  O12      1.0000 0.32443  0.70102  0.33668  Biso   1.000  O
  O13      1.0000 0.32443  0.70102  0.64035  Biso   1.000  O
  O14      1.0000 0.32443  0.48838  0.85299  Biso   1.000  O
  O15      1.0000 0.62810  0.18472  0.33668  Biso   1.000  O
  O16      1.0000 0.84074  0.18472  0.33668  Biso   1.000  O
  O17      1.0000 0.84074  0.48838  0.33668  Biso   1.000  O
  O18      1.0000 0.62810  0.70102  0.33668  Biso   1.000  O
  O19      1.0000 0.32443  0.18472  0.64035  Biso   1.000  O
  O20      1.0000 0.32443  0.18472  0.85299  Biso   1.000  O
  O21      1.0000 0.93075  0.09470  0.73036  Biso   1.000  O
  O22      1.0000 0.71811  0.09470  0.94300  Biso   1.000  O
  O23      1.0000 0.23442  0.57840  0.24667  Biso   1.000  O
  O24      1.0000 0.23442  0.79104  0.24667  Biso   1.000  O
  O25      1.0000 0.23442  0.09470  0.94300  Biso   1.000  O
  O26      1.0000 0.23442  0.09470  0.73036  Biso   1.000  O
  O27      1.0000 0.93075  0.57840  0.24667  Biso   1.000  O
  O28      1.0000 0.71811  0.79104  0.24667  Biso   1.000  O
  O29      1.0000 0.71811  0.09470  0.24667  Biso   1.000  O
  O30      1.0000 0.93075  0.09470  0.24667  Biso   1.000  O
  O31      1.0000 0.23442  0.57840  0.94300  Biso   1.000  O
  O32      1.0000 0.23442  0.79104  0.73036  Biso   1.000  O
  O33      1.0000 0.69116  0.16658  0.82620  Biso   1.000  O
  O34      1.0000 0.81395  0.16658  0.70341  Biso   1.000  O
  O35      1.0000 0.30630  0.55144  0.31855  Biso   1.000  O
  O36      1.0000 0.30630  0.67423  0.31855  Biso   1.000  O
  O37      1.0000 0.30630  0.67423  0.70341  Biso   1.000  O
  O38      1.0000 0.30630  0.55144  0.82620  Biso   1.000  O
  O39      1.0000 0.69116  0.16658  0.31855  Biso   1.000  O
  O40      1.0000 0.81395  0.16658  0.31855  Biso   1.000  O
  O41      1.0000 0.81395  0.55144  0.31855  Biso   1.000  O
  O42      1.0000 0.69116  0.67423  0.31855  Biso   1.000  O
  O43      1.0000 0.30630  0.16658  0.70341  Biso   1.000  O
  O44      1.0000 0.30630  0.16658  0.82620  Biso   1.000  O
  O45      1.0000 0.86769  0.11284  0.75716  Biso   1.000  O
  O46      1.0000 0.74490  0.11284  0.87994  Biso   1.000  O
  O47      1.0000 0.25255  0.60519  0.26480  Biso   1.000  O
  O48      1.0000 0.25255  0.72798  0.26480  Biso   1.000  O
  O49      1.0000 0.25255  0.11284  0.87994  Biso   1.000  O
  O50      1.0000 0.25255  0.11284  0.75716  Biso   1.000  O
  O51      1.0000 0.86769  0.60519  0.26480  Biso   1.000  O
  O52      1.0000 0.74490  0.72798  0.26480  Biso   1.000  O
  O53      1.0000 0.74490  0.11284  0.26480  Biso   1.000  O
  O54      1.0000 0.86769  0.11284  0.26480  Biso   1.000  O
  O55      1.0000 0.25255  0.60519  0.87994  Biso   1.000  O
  O56      1.0000 0.25255  0.72798  0.75716  Biso   1.000  O
  O57      1.0000 0.66376  0.25194  0.68287  Biso   1.000  O
  O58      1.0000 0.72188  0.19383  0.74099  Biso   1.000  O
  O59      1.0000 0.38481  0.53090  0.40391  Biso   1.000  O
  O60      1.0000 0.32669  0.58902  0.34580  Biso   1.000  O
  O61      1.0000 0.38481  0.53090  0.68287  Biso   1.000  O
  O62      1.0000 0.32669  0.58902  0.74099  Biso   1.000  O
  O63      1.0000 0.66376  0.25194  0.40391  Biso   1.000  O
  O64      1.0000 0.72188  0.19383  0.34580  Biso   1.000  O
  O65      1.0000 0.66376  0.53090  0.40391  Biso   1.000  O
  O66      1.0000 0.72188  0.58902  0.34580  Biso   1.000  O
  O67      1.0000 0.38481  0.25194  0.68287  Biso   1.000  O
  O68      1.0000 0.32669  0.19383  0.74099  Biso   1.000  O
  O69      1.0000 0.89509  0.02748  0.90048  Biso   1.000  O
  O70      1.0000 0.83697  0.08559  0.84237  Biso   1.000  O
  O71      1.0000 0.17405  0.74852  0.17944  Biso   1.000  O
  O72      1.0000 0.23216  0.69040  0.23756  Biso   1.000  O
  O73      1.0000 0.17405  0.02748  0.90048  Biso   1.000  O
  O74      1.0000 0.23216  0.08559  0.84237  Biso   1.000  O
  O75      1.0000 0.89509  0.74852  0.17944  Biso   1.000  O
  O76      1.0000 0.83697  0.69040  0.23756  Biso   1.000  O
  O77      1.0000 0.89509  0.02748  0.17944  Biso   1.000  O
  O78      1.0000 0.83697  0.08559  0.23756  Biso   1.000  O
  O79      1.0000 0.17405  0.74852  0.90048  Biso   1.000  O
  O80      1.0000 0.23216  0.69040  0.84237  Biso   1.000  O
  O81      1.0000 0.52429  0.39142  0.54339  Biso   1.000  O
  O82      1.0000 0.03457  0.88800  0.03996  Biso   1.000  O
  O83      1.0000 0.57983  0.27454  0.72161  Biso   1.000  O
  O84      1.0000 0.70251  0.27454  0.59894  Biso   1.000  O
  O85      1.0000 0.40740  0.44697  0.42650  Biso   1.000  O
  O86      1.0000 0.40740  0.56965  0.42650  Biso   1.000  O
  O87      1.0000 0.40740  0.56965  0.59894  Biso   1.000  O
  O88      1.0000 0.40740  0.44697  0.72161  Biso   1.000  O
  O89      1.0000 0.57983  0.27454  0.42650  Biso   1.000  O
  O90      1.0000 0.70251  0.27454  0.42650  Biso   1.000  O
  O91      1.0000 0.70251  0.44697  0.42650  Biso   1.000  O
  O92      1.0000 0.57983  0.56965  0.42650  Biso   1.000  O
  O93      1.0000 0.40740  0.27454  0.59894  Biso   1.000  O
  O94      1.0000 0.40740  0.27454  0.72161  Biso   1.000  O
  O95      1.0000 0.97902  0.00488  0.86174  Biso   1.000  O
  O96      1.0000 0.85634  0.00488  0.98442  Biso   1.000  O
  O97      1.0000 0.15145  0.70977  0.15685  Biso   1.000  O
  O98      1.0000 0.15145  0.83245  0.15685  Biso   1.000  O
  O99      1.0000 0.15145  0.00488  0.98442  Biso   1.000  O
  O100     1.0000 0.15145  0.00488  0.86174  Biso   1.000  O
  O101     1.0000 0.97902  0.70977  0.15685  Biso   1.000  O
  O102     1.0000 0.85634  0.83245  0.15685  Biso   1.000  O
  O103     1.0000 0.85634  0.00488  0.15685  Biso   1.000  O
  O104     1.0000 0.97902  0.00488  0.15685  Biso   1.000  O
  O105     1.0000 0.15145  0.70977  0.98442  Biso   1.000  O
