data_image0
_cell_length_a       18.3054
_cell_length_b       18.3054
_cell_length_c       18.3054
_cell_angle_alpha    60
_cell_angle_beta     60
_cell_angle_gamma    60

_symmetry_space_group_name_H-M    "P 1"
_symmetry_int_tables_number       1

loop_
  _symmetry_equiv_pos_as_xyz
  'x, y, z'

loop_
  _atom_site_label
  _atom_site_occupancy
  _atom_site_fract_x
  _atom_site_fract_y
  _atom_site_fract_z
  _atom_site_thermal_displace_type
  _atom_site_B_iso_or_equiv
  _atom_site_type_symbol
  C1       1.0000 0.20620  0.38140  0.20620  Biso   1.000  C
  C2       1.0000 0.38140  0.20620  0.20620  Biso   1.000  C
  C3       1.0000 0.20620  0.20620  0.20620  Biso   1.000  C
  C4       1.0000 0.20620  0.20620  0.38140  Biso   1.000  C
  C5       1.0000 0.61860  0.79380  0.79380  Biso   1.000  C
  C6       1.0000 0.79380  0.61860  0.79380  Biso   1.000  C
  C7       1.0000 0.79380  0.79380  0.79380  Biso   1.000  C
  C8       1.0000 0.79380  0.79380  0.61860  Biso   1.000  C
  C9       1.0000 0.04910  0.56290  0.04910  Biso   1.000  C
  C10      1.0000 0.56290  0.04910  0.33890  Biso   1.000  C
  C11      1.0000 0.04910  0.33890  0.04910  Biso   1.000  C
  C12      1.0000 0.33890  0.04910  0.56290  Biso   1.000  C
  C13      1.0000 0.04910  0.04910  0.33890  Biso   1.000  C
  C14      1.0000 0.56290  0.33890  0.04910  Biso   1.000  C
  C15      1.0000 0.04910  0.04910  0.56290  Biso   1.000  C
  C16      1.0000 0.33890  0.56290  0.04910  Biso   1.000  C
  C17      1.0000 0.04910  0.33890  0.56290  Biso   1.000  C
  C18      1.0000 0.56290  0.04910  0.04910  Biso   1.000  C
  C19      1.0000 0.04910  0.56290  0.33890  Biso   1.000  C
  C20      1.0000 0.33890  0.04910  0.04910  Biso   1.000  C
  C21      1.0000 0.43710  0.95090  0.95090  Biso   1.000  C
  C22      1.0000 0.95090  0.43710  0.66110  Biso   1.000  C
  C23      1.0000 0.66110  0.95090  0.95090  Biso   1.000  C
  C24      1.0000 0.95090  0.66110  0.43710  Biso   1.000  C
  C25      1.0000 0.95090  0.95090  0.66110  Biso   1.000  C
  C26      1.0000 0.66110  0.43710  0.95090  Biso   1.000  C
  C27      1.0000 0.95090  0.95090  0.43710  Biso   1.000  C
  C28      1.0000 0.43710  0.66110  0.95090  Biso   1.000  C
  C29      1.0000 0.66110  0.95090  0.43710  Biso   1.000  C
  C30      1.0000 0.95090  0.43710  0.95090  Biso   1.000  C
  C31      1.0000 0.43710  0.95090  0.66110  Biso   1.000  C
  C32      1.0000 0.95090  0.66110  0.95090  Biso   1.000  C
  C33      1.0000 0.02610  0.53970  0.02610  Biso   1.000  C
  C34      1.0000 0.53970  0.02610  0.40810  Biso   1.000  C
  C35      1.0000 0.02610  0.40810  0.02610  Biso   1.000  C
  C36      1.0000 0.40810  0.02610  0.53970  Biso   1.000  C
  C37      1.0000 0.02610  0.02610  0.40810  Biso   1.000  C
  C38      1.0000 0.53970  0.40810  0.02610  Biso   1.000  C
  C39      1.0000 0.02610  0.02610  0.53970  Biso   1.000  C
  C40      1.0000 0.40810  0.53970  0.02610  Biso   1.000  C
  C41      1.0000 0.02610  0.40810  0.53970  Biso   1.000  C
  C42      1.0000 0.53970  0.02610  0.02610  Biso   1.000  C
  C43      1.0000 0.02610  0.53970  0.40810  Biso   1.000  C
  C44      1.0000 0.40810  0.02610  0.02610  Biso   1.000  C
  C45      1.0000 0.46030  0.97390  0.97390  Biso   1.000  C
  C46      1.0000 0.97390  0.46030  0.59190  Biso   1.000  C
  C47      1.0000 0.59190  0.97390  0.97390  Biso   1.000  C
  C48      1.0000 0.97390  0.59190  0.46030  Biso   1.000  C
  C49      1.0000 0.97390  0.97390  0.59190  Biso   1.000  C
  C50      1.0000 0.59190  0.46030  0.97390  Biso   1.000  C
  C51      1.0000 0.97390  0.97390  0.46030  Biso   1.000  C
  C52      1.0000 0.46030  0.59190  0.97390  Biso   1.000  C
  C53      1.0000 0.59190  0.97390  0.46030  Biso   1.000  C
  C54      1.0000 0.97390  0.46030  0.97390  Biso   1.000  C
  C55      1.0000 0.46030  0.97390  0.59190  Biso   1.000  C
  C56      1.0000 0.97390  0.59190  0.97390  Biso   1.000  C
  C57      1.0000 0.10850  0.39150  0.10850  Biso   1.000  C
  C58      1.0000 0.05500  0.44500  0.05500  Biso   1.000  C
  C59      1.0000 0.39150  0.10850  0.39150  Biso   1.000  C
  C60      1.0000 0.44500  0.05500  0.44500  Biso   1.000  C
  C61      1.0000 0.10850  0.10850  0.39150  Biso   1.000  C
  C62      1.0000 0.05500  0.05500  0.44500  Biso   1.000  C
  C63      1.0000 0.39150  0.39150  0.10850  Biso   1.000  C
  C64      1.0000 0.44500  0.44500  0.05500  Biso   1.000  C
  C65      1.0000 0.10850  0.39150  0.39150  Biso   1.000  C
  C66      1.0000 0.05500  0.44500  0.44500  Biso   1.000  C
  C67      1.0000 0.39150  0.10850  0.10850  Biso   1.000  C
  C68      1.0000 0.44500  0.05500  0.05500  Biso   1.000  C
  C69      1.0000 0.60850  0.89150  0.89150  Biso   1.000  C
  C70      1.0000 0.55500  0.94500  0.94500  Biso   1.000  C
  C71      1.0000 0.89150  0.60850  0.60850  Biso   1.000  C
  C72      1.0000 0.94500  0.55500  0.55500  Biso   1.000  C
  C73      1.0000 0.89150  0.89150  0.60850  Biso   1.000  C
  C74      1.0000 0.94500  0.94500  0.55500  Biso   1.000  C
  C75      1.0000 0.60850  0.60850  0.89150  Biso   1.000  C
  C76      1.0000 0.55500  0.55500  0.94500  Biso   1.000  C
  C77      1.0000 0.60850  0.89150  0.60850  Biso   1.000  C
  C78      1.0000 0.55500  0.94500  0.55500  Biso   1.000  C
  C79      1.0000 0.89150  0.60850  0.89150  Biso   1.000  C
  C80      1.0000 0.94500  0.55500  0.94500  Biso   1.000  C
  C81      1.0000 0.25000  0.25000  0.25000  Biso   1.000  C
  C82      1.0000 0.75000  0.75000  0.75000  Biso   1.000  C
  C83      1.0000 0.13390  0.42730  0.13390  Biso   1.000  C
  C84      1.0000 0.42730  0.13390  0.30490  Biso   1.000  C
  C85      1.0000 0.13390  0.30490  0.13390  Biso   1.000  C
  C86      1.0000 0.30490  0.13390  0.42730  Biso   1.000  C
  C87      1.0000 0.13390  0.13390  0.30490  Biso   1.000  C
  C88      1.0000 0.42730  0.30490  0.13390  Biso   1.000  C
  C89      1.0000 0.13390  0.13390  0.42730  Biso   1.000  C
  C90      1.0000 0.30490  0.42730  0.13390  Biso   1.000  C
  C91      1.0000 0.13390  0.30490  0.42730  Biso   1.000  C
  C92      1.0000 0.42730  0.13390  0.13390  Biso   1.000  C
  C93      1.0000 0.13390  0.42730  0.30490  Biso   1.000  C
  C94      1.0000 0.30490  0.13390  0.13390  Biso   1.000  C
  C95      1.0000 0.57270  0.86610  0.86610  Biso   1.000  C
  C96      1.0000 0.86610  0.57270  0.69510  Biso   1.000  C
  C97      1.0000 0.69510  0.86610  0.86610  Biso   1.000  C
  C98      1.0000 0.86610  0.69510  0.57270  Biso   1.000  C
  C99      1.0000 0.86610  0.86610  0.69510  Biso   1.000  C
  C100     1.0000 0.69510  0.57270  0.86610  Biso   1.000  C
  C101     1.0000 0.86610  0.86610  0.57270  Biso   1.000  C
  C102     1.0000 0.57270  0.69510  0.86610  Biso   1.000  C
  C103     1.0000 0.69510  0.86610  0.57270  Biso   1.000  C
  C104     1.0000 0.86610  0.57270  0.86610  Biso   1.000  C
  C105     1.0000 0.57270  0.86610  0.69510  Biso   1.000  C
  C106     1.0000 0.86610  0.69510  0.86610  Biso   1.000  C
  O1       1.0000 0.00000  0.00000  0.00000  Biso   1.000  O
  O2       1.0000 0.41389  0.58598  0.41416  Biso   1.000  O
  O3       1.0000 0.41389  0.41161  0.41416  Biso   1.000  O
  O4       1.0000 1.00000  0.82563  0.00000  Biso   1.000  O
  O5       1.0000 0.99954  0.00034  0.82541  Biso   1.000  O
  O6       1.0000 0.82523  0.00015  0.00010  Biso   1.000  O
  O7       1.0000 0.41435  0.41127  0.58875  Biso   1.000  O
  O8       1.0000 0.58866  0.41146  0.41406  Biso   1.000  O
  O9       1.0000 0.16554  0.64361  0.85685  Biso   1.000  O
  O10      1.0000 0.15632  0.86072  0.64576  Biso   1.000  O
  O11      1.0000 0.86255  0.64470  0.15968  Biso   1.000  O
  O12      1.0000 0.64275  0.85820  0.16198  Biso   1.000  O
  O13      1.0000 0.16635  0.86019  0.15719  Biso   1.000  O
  O14      1.0000 0.24835  0.25198  0.55731  Biso   1.000  O
  O15      1.0000 0.25757  0.24877  0.76840  Biso   1.000  O
  O16      1.0000 0.55135  0.25289  0.25448  Biso   1.000  O
  O17      1.0000 0.77113  0.24890  0.25219  Biso   1.000  O
  O18      1.0000 0.24754  0.76970  0.25697  Biso   1.000  O
  O19      1.0000 0.24835  0.76799  0.55731  Biso   1.000  O
  O20      1.0000 0.25757  0.55089  0.76840  Biso   1.000  O
  O21      1.0000 0.55135  0.76691  0.25448  Biso   1.000  O
  O22      1.0000 0.77114  0.55341  0.25219  Biso   1.000  O
  O23      1.0000 0.24754  0.55142  0.25697  Biso   1.000  O
  O24      1.0000 0.16554  0.15963  0.85685  Biso   1.000  O
  O25      1.0000 0.15633  0.16283  0.64576  Biso   1.000  O
  O26      1.0000 0.86254  0.15872  0.15968  Biso   1.000  O
  O27      1.0000 0.64276  0.16271  0.16197  Biso   1.000  O
  O28      1.0000 0.16635  0.64190  0.15719  Biso   1.000  O
  O29      1.0000 0.64364  0.16152  0.85894  Biso   1.000  O
  O30      1.0000 0.85690  0.16263  0.64346  Biso   1.000  O
  O31      1.0000 0.77025  0.25008  0.55522  Biso   1.000  O
  O32      1.0000 0.55699  0.24897  0.77070  Biso   1.000  O
  O33      1.0000 0.09401  0.81713  0.82056  Biso   1.000  O
  O34      1.0000 0.15344  0.75921  0.75953  Biso   1.000  O
  O35      1.0000 0.18329  0.66924  0.79483  Biso   1.000  O
  O36      1.0000 0.17567  0.79880  0.67168  Biso   1.000  O
  O37      1.0000 0.81574  0.82031  0.09686  Biso   1.000  O
  O38      1.0000 0.76180  0.76198  0.15200  Biso   1.000  O
  O39      1.0000 0.80053  0.67082  0.17763  Biso   1.000  O
  O40      1.0000 0.67037  0.79638  0.17942  Biso   1.000  O
  O41      1.0000 0.18220  0.79827  0.17723  Biso   1.000  O
  O42      1.0000 0.31988  0.31768  0.59361  Biso   1.000  O
  O43      1.0000 0.26045  0.25815  0.65463  Biso   1.000  O
  O44      1.0000 0.23061  0.23333  0.61933  Biso   1.000  O
  O45      1.0000 0.23822  0.23212  0.74248  Biso   1.000  O
  O46      1.0000 0.59815  0.31889  0.31730  Biso   1.000  O
  O47      1.0000 0.65208  0.26176  0.26216  Biso   1.000  O
  O48      1.0000 0.61337  0.23494  0.23653  Biso   1.000  O
  O49      1.0000 0.74352  0.23215  0.23474  Biso   1.000  O
  O50      1.0000 0.23168  0.74368  0.23693  Biso   1.000  O
  O51      1.0000 0.31988  0.59447  0.59361  Biso   1.000  O
  O52      1.0000 0.26045  0.65240  0.65463  Biso   1.000  O
  O53      1.0000 0.23060  0.74236  0.61933  Biso   1.000  O
  O54      1.0000 0.23822  0.61281  0.74248  Biso   1.000  O
  O55      1.0000 0.59815  0.59130  0.31730  Biso   1.000  O
  O56      1.0000 0.65209  0.64963  0.26216  Biso   1.000  O
  O57      1.0000 0.61336  0.74079  0.23653  Biso   1.000  O
  O58      1.0000 0.74352  0.61523  0.23474  Biso   1.000  O
  O59      1.0000 0.23169  0.61334  0.23693  Biso   1.000  O
  O60      1.0000 0.09402  0.09392  0.82056  Biso   1.000  O
  O61      1.0000 0.15344  0.15345  0.75953  Biso   1.000  O
  O62      1.0000 0.18328  0.17828  0.79483  Biso   1.000  O
  O63      1.0000 0.17567  0.17948  0.67168  Biso   1.000  O
  O64      1.0000 0.81575  0.09271  0.09686  Biso   1.000  O
  O65      1.0000 0.76181  0.14984  0.15200  Biso   1.000  O
  O66      1.0000 0.80053  0.17666  0.17763  Biso   1.000  O
  O67      1.0000 0.67038  0.17946  0.17942  Biso   1.000  O
  O68      1.0000 0.18221  0.66793  0.17723  Biso   1.000  O
  O69      1.0000 0.82241  0.09472  0.81377  Biso   1.000  O
  O70      1.0000 0.76039  0.15176  0.76172  Biso   1.000  O
  O71      1.0000 0.67076  0.17888  0.79712  Biso   1.000  O
  O72      1.0000 0.79499  0.18008  0.67049  Biso   1.000  O
  O73      1.0000 0.09253  0.82211  0.08888  Biso   1.000  O
  O74      1.0000 0.15236  0.76058  0.15210  Biso   1.000  O
  O75      1.0000 0.59148  0.31688  0.60039  Biso   1.000  O
  O76      1.0000 0.65350  0.25985  0.65244  Biso   1.000  O
  O77      1.0000 0.74314  0.23273  0.61704  Biso   1.000  O
  O78      1.0000 0.61891  0.23153  0.74368  Biso   1.000  O
  O79      1.0000 0.32136  0.58950  0.32528  Biso   1.000  O
  O80      1.0000 0.26153  0.65102  0.26206  Biso   1.000  O
  O81      1.0000 0.07397  0.90229  0.77479  Biso   1.000  O
  O82      1.0000 0.07527  0.77336  0.90451  Biso   1.000  O
  O83      1.0000 0.77596  0.90327  0.07044  Biso   1.000  O
  O84      1.0000 0.90179  0.77634  0.07443  Biso   1.000  O
  O85      1.0000 0.07349  0.90427  0.07163  Biso   1.000  O
  O86      1.0000 0.33992  0.33702  0.63938  Biso   1.000  O
  O87      1.0000 0.33862  0.33912  0.50965  Biso   1.000  O
  O88      1.0000 0.63793  0.33564  0.34372  Biso   1.000  O
  O89      1.0000 0.51210  0.33853  0.33974  Biso   1.000  O
  O90      1.0000 0.34040  0.63537  0.34253  Biso   1.000  O
  O91      1.0000 0.33992  0.50932  0.63938  Biso   1.000  O
  O92      1.0000 0.33862  0.63825  0.50965  Biso   1.000  O
  O93      1.0000 0.63793  0.50834  0.34372  Biso   1.000  O
  O94      1.0000 0.51210  0.63527  0.33974  Biso   1.000  O
  O95      1.0000 0.34040  0.50734  0.34253  Biso   1.000  O
  O96      1.0000 0.07397  0.07458  0.77479  Biso   1.000  O
  O97      1.0000 0.07528  0.07248  0.90451  Biso   1.000  O
  O98      1.0000 0.77596  0.07596  0.07044  Biso   1.000  O
  O99      1.0000 0.90179  0.07307  0.07443  Biso   1.000  O
  O100     1.0000 0.07349  0.77624  0.07163  Biso   1.000  O
  O101     1.0000 0.95692  0.95632  0.95607  Biso   1.000  O
  O102     1.0000 0.90297  0.07359  0.77548  Biso   1.000  O
  O103     1.0000 0.77735  0.07587  0.89654  Biso   1.000  O
  O104     1.0000 0.45697  0.45529  0.45810  Biso   1.000  O
  O105     1.0000 0.51092  0.33802  0.63868  Biso   1.000  O
