data_image0
_cell_length_a       18.3034
_cell_length_b       18.3034
_cell_length_c       18.3034
_cell_angle_alpha    60
_cell_angle_beta     60
_cell_angle_gamma    60

_symmetry_space_group_name_H-M    "P 1"
_symmetry_int_tables_number       1

loop_
  _symmetry_equiv_pos_as_xyz
  'x, y, z'

loop_
  _atom_site_label
  _atom_site_occupancy
  _atom_site_fract_x
  _atom_site_fract_y
  _atom_site_fract_z
  _atom_site_thermal_displace_type
  _atom_site_B_iso_or_equiv
  _atom_site_type_symbol
  C1       1.0000 0.29349  0.29350  0.29350  Biso   1.000  C
  C2       1.0000 0.29349  0.29350  0.11951  Biso   1.000  C
  C3       1.0000 0.29349  0.11951  0.29350  Biso   1.000  C
  C4       1.0000 0.11950  0.29350  0.29350  Biso   1.000  C
  C5       1.0000 0.70651  0.70650  0.70650  Biso   1.000  C
  C6       1.0000 0.70651  0.70650  0.88049  Biso   1.000  C
  C7       1.0000 0.88050  0.70650  0.70650  Biso   1.000  C
  C8       1.0000 0.70651  0.88049  0.70650  Biso   1.000  C
  C9       1.0000 0.45470  0.45470  0.15630  Biso   1.000  C
  C10      1.0000 0.45470  0.45470  0.93430  Biso   1.000  C
  C11      1.0000 0.15630  0.93430  0.45470  Biso   1.000  C
  C12      1.0000 0.93430  0.15630  0.45470  Biso   1.000  C
  C13      1.0000 0.45470  0.15630  0.93430  Biso   1.000  C
  C14      1.0000 0.45470  0.93430  0.15630  Biso   1.000  C
  C15      1.0000 0.15630  0.45470  0.45470  Biso   1.000  C
  C16      1.0000 0.93430  0.45470  0.45470  Biso   1.000  C
  C17      1.0000 0.45470  0.93430  0.45470  Biso   1.000  C
  C18      1.0000 0.45470  0.15630  0.45470  Biso   1.000  C
  C19      1.0000 0.15630  0.45470  0.93430  Biso   1.000  C
  C20      1.0000 0.93430  0.45470  0.15630  Biso   1.000  C
  C21      1.0000 0.54530  0.54530  0.84370  Biso   1.000  C
  C22      1.0000 0.54530  0.54530  0.06570  Biso   1.000  C
  C23      1.0000 0.06570  0.84370  0.54530  Biso   1.000  C
  C24      1.0000 0.84370  0.06570  0.54530  Biso   1.000  C
  C25      1.0000 0.84370  0.54530  0.06570  Biso   1.000  C
  C26      1.0000 0.06570  0.54530  0.84370  Biso   1.000  C
  C27      1.0000 0.54530  0.84370  0.54530  Biso   1.000  C
  C28      1.0000 0.54530  0.06570  0.54530  Biso   1.000  C
  C29      1.0000 0.06570  0.54530  0.54530  Biso   1.000  C
  C30      1.0000 0.84370  0.54530  0.54530  Biso   1.000  C
  C31      1.0000 0.54530  0.84370  0.06570  Biso   1.000  C
  C32      1.0000 0.54530  0.06570  0.84370  Biso   1.000  C
  C33      1.0000 0.47355  0.47355  0.09143  Biso   1.000  C
  C34      1.0000 0.47355  0.47355  0.96147  Biso   1.000  C
  C35      1.0000 0.09143  0.96147  0.47355  Biso   1.000  C
  C36      1.0000 0.96147  0.09143  0.47355  Biso   1.000  C
  C37      1.0000 0.47355  0.09143  0.96147  Biso   1.000  C
  C38      1.0000 0.47355  0.96147  0.09143  Biso   1.000  C
  C39      1.0000 0.09143  0.47355  0.47355  Biso   1.000  C
  C40      1.0000 0.96147  0.47355  0.47355  Biso   1.000  C
  C41      1.0000 0.47355  0.96147  0.47355  Biso   1.000  C
  C42      1.0000 0.47355  0.09143  0.47355  Biso   1.000  C
  C43      1.0000 0.09143  0.47355  0.96147  Biso   1.000  C
  C44      1.0000 0.96147  0.47355  0.09143  Biso   1.000  C
  C45      1.0000 0.52645  0.52645  0.90857  Biso   1.000  C
  C46      1.0000 0.52645  0.52645  0.03853  Biso   1.000  C
  C47      1.0000 0.03853  0.90857  0.52645  Biso   1.000  C
  C48      1.0000 0.90857  0.03853  0.52645  Biso   1.000  C
  C49      1.0000 0.90857  0.52645  0.03853  Biso   1.000  C
  C50      1.0000 0.03853  0.52645  0.90857  Biso   1.000  C
  C51      1.0000 0.52645  0.90857  0.52645  Biso   1.000  C
  C52      1.0000 0.52645  0.03853  0.52645  Biso   1.000  C
  C53      1.0000 0.03853  0.52645  0.52645  Biso   1.000  C
  C54      1.0000 0.90857  0.52645  0.52645  Biso   1.000  C
  C55      1.0000 0.52645  0.90857  0.03853  Biso   1.000  C
  C56      1.0000 0.52645  0.03853  0.90857  Biso   1.000  C
  C57      1.0000 0.38830  0.38830  0.11170  Biso   1.000  C
  C58      1.0000 0.44623  0.44623  0.05377  Biso   1.000  C
  C59      1.0000 0.11170  0.11170  0.38830  Biso   1.000  C
  C60      1.0000 0.05377  0.05377  0.44623  Biso   1.000  C
  C61      1.0000 0.38830  0.11170  0.11170  Biso   1.000  C
  C62      1.0000 0.44623  0.05377  0.05377  Biso   1.000  C
  C63      1.0000 0.11170  0.38830  0.38830  Biso   1.000  C
  C64      1.0000 0.05377  0.44623  0.44623  Biso   1.000  C
  C65      1.0000 0.38830  0.11170  0.38830  Biso   1.000  C
  C66      1.0000 0.44623  0.05377  0.44623  Biso   1.000  C
  C67      1.0000 0.11170  0.38830  0.11170  Biso   1.000  C
  C68      1.0000 0.05377  0.44623  0.05377  Biso   1.000  C
  C69      1.0000 0.61170  0.61170  0.88830  Biso   1.000  C
  C70      1.0000 0.55377  0.55377  0.94623  Biso   1.000  C
  C71      1.0000 0.88830  0.88830  0.61170  Biso   1.000  C
  C72      1.0000 0.94623  0.94623  0.55377  Biso   1.000  C
  C73      1.0000 0.88830  0.61170  0.88830  Biso   1.000  C
  C74      1.0000 0.94623  0.55377  0.94623  Biso   1.000  C
  C75      1.0000 0.61170  0.88830  0.61170  Biso   1.000  C
  C76      1.0000 0.55377  0.94623  0.55377  Biso   1.000  C
  C77      1.0000 0.88830  0.61170  0.61170  Biso   1.000  C
  C78      1.0000 0.94623  0.55377  0.55377  Biso   1.000  C
  C79      1.0000 0.61170  0.88830  0.88830  Biso   1.000  C
  C80      1.0000 0.55377  0.94623  0.94623  Biso   1.000  C
  C81      1.0000 0.36613  0.36613  0.19527  Biso   1.000  C
  C82      1.0000 0.36613  0.36613  0.07247  Biso   1.000  C
  C83      1.0000 0.19527  0.07247  0.36613  Biso   1.000  C
  C84      1.0000 0.07247  0.19527  0.36613  Biso   1.000  C
  C85      1.0000 0.36613  0.19527  0.07247  Biso   1.000  C
  C86      1.0000 0.36613  0.07247  0.19527  Biso   1.000  C
  C87      1.0000 0.19527  0.36613  0.36613  Biso   1.000  C
  C88      1.0000 0.07247  0.36613  0.36613  Biso   1.000  C
  C89      1.0000 0.36613  0.07247  0.36613  Biso   1.000  C
  C90      1.0000 0.36613  0.19527  0.36613  Biso   1.000  C
  C91      1.0000 0.19527  0.36613  0.07247  Biso   1.000  C
  C92      1.0000 0.07247  0.36613  0.19527  Biso   1.000  C
  C93      1.0000 0.63387  0.63387  0.80473  Biso   1.000  C
  C94      1.0000 0.63387  0.63387  0.92753  Biso   1.000  C
  C95      1.0000 0.92753  0.80473  0.63387  Biso   1.000  C
  C96      1.0000 0.80473  0.92753  0.63387  Biso   1.000  C
  C97      1.0000 0.80473  0.63387  0.92753  Biso   1.000  C
  C98      1.0000 0.92753  0.63387  0.80473  Biso   1.000  C
  C99      1.0000 0.63387  0.80473  0.63387  Biso   1.000  C
  C100     1.0000 0.63387  0.92753  0.63387  Biso   1.000  C
  C101     1.0000 0.92753  0.63387  0.63387  Biso   1.000  C
  C102     1.0000 0.80473  0.63387  0.63387  Biso   1.000  C
  C103     1.0000 0.63387  0.80473  0.92753  Biso   1.000  C
  C104     1.0000 0.63387  0.92753  0.80473  Biso   1.000  C
  C105     1.0000 0.25000  0.25000  0.25000  Biso   1.000  C
  C106     1.0000 0.75000  0.75000  0.75000  Biso   1.000  C
  O1       1.0000 0.99139  0.97177  0.86988  Biso   1.000  O
  O2       1.0000 0.99143  0.14361  0.86983  Biso   1.000  O
  O3       1.0000 0.16327  0.97177  0.86988  Biso   1.000  O
  O4       1.0000 0.99144  0.97173  0.04171  Biso   1.000  O
  O5       1.0000 0.57320  0.56185  0.45996  Biso   1.000  O
  O6       1.0000 0.57315  0.39002  0.46001  Biso   1.000  O
  O7       1.0000 0.40131  0.56185  0.45996  Biso   1.000  O
  O8       1.0000 0.57315  0.56190  0.28813  Biso   1.000  O
  O9       1.0000 0.81247  0.17099  0.69190  Biso   1.000  O
  O10      1.0000 0.19086  0.79359  0.68991  Biso   1.000  O
  O11      1.0000 0.81187  0.79458  0.06910  Biso   1.000  O
  O12      1.0000 0.81348  0.30967  0.69091  Biso   1.000  O
  O13      1.0000 0.81148  0.31067  0.06930  Biso   1.000  O
  O14      1.0000 0.19068  0.30948  0.69030  Biso   1.000  O
  O15      1.0000 0.32095  0.79380  0.06909  Biso   1.000  O
  O16      1.0000 0.32196  0.79180  0.69169  Biso   1.000  O
  O17      1.0000 0.32076  0.17100  0.69268  Biso   1.000  O
  O18      1.0000 0.18227  0.79280  0.20778  Biso   1.000  O
  O19      1.0000 0.80487  0.17119  0.20878  Biso   1.000  O
  O20      1.0000 0.80587  0.79220  0.20759  Biso   1.000  O
  O21      1.0000 0.75212  0.36264  0.63794  Biso   1.000  O
  O22      1.0000 0.37372  0.74004  0.63993  Biso   1.000  O
  O23      1.0000 0.75272  0.73905  0.26074  Biso   1.000  O
  O24      1.0000 0.75111  0.22396  0.63893  Biso   1.000  O
  O25      1.0000 0.75310  0.22296  0.26054  Biso   1.000  O
  O26      1.0000 0.37391  0.22415  0.63953  Biso   1.000  O
  O27      1.0000 0.24363  0.73983  0.26075  Biso   1.000  O
  O28      1.0000 0.24263  0.74183  0.63815  Biso   1.000  O
  O29      1.0000 0.24383  0.36263  0.63715  Biso   1.000  O
  O30      1.0000 0.38231  0.74083  0.12206  Biso   1.000  O
  O31      1.0000 0.75972  0.36243  0.12106  Biso   1.000  O
  O32      1.0000 0.75872  0.74143  0.12225  Biso   1.000  O
  O33      1.0000 0.83983  0.20928  0.71827  Biso   1.000  O
  O34      1.0000 0.89801  0.15109  0.77646  Biso   1.000  O
  O35      1.0000 0.22894  0.82017  0.10738  Biso   1.000  O
  O36      1.0000 0.17075  0.87836  0.04919  Biso   1.000  O
  O37      1.0000 0.72476  0.32435  0.61157  Biso   1.000  O
  O38      1.0000 0.66657  0.38254  0.55338  Biso   1.000  O
  O39      1.0000 0.33564  0.71346  0.22246  Biso   1.000  O
  O40      1.0000 0.39383  0.65527  0.28065  Biso   1.000  O
  O41      1.0000 0.83963  0.81997  0.10757  Biso   1.000  O
  O42      1.0000 0.89754  0.87788  0.04966  Biso   1.000  O
  O43      1.0000 0.22913  0.20948  0.71807  Biso   1.000  O
  O44      1.0000 0.17122  0.15157  0.77598  Biso   1.000  O
  O45      1.0000 0.72495  0.71366  0.22226  Biso   1.000  O
  O46      1.0000 0.66704  0.65575  0.28017  Biso   1.000  O
  O47      1.0000 0.33545  0.32415  0.61177  Biso   1.000  O
  O48      1.0000 0.39336  0.38206  0.55386  Biso   1.000  O
  O49      1.0000 0.22934  0.81977  0.71787  Biso   1.000  O
  O50      1.0000 0.17143  0.87768  0.77578  Biso   1.000  O
  O51      1.0000 0.83943  0.20968  0.10777  Biso   1.000  O
  O52      1.0000 0.89734  0.15177  0.04986  Biso   1.000  O
  O53      1.0000 0.33525  0.71386  0.61197  Biso   1.000  O
  O54      1.0000 0.39316  0.65595  0.55406  Biso   1.000  O
  O55      1.0000 0.72516  0.32395  0.22207  Biso   1.000  O
  O56      1.0000 0.66725  0.38186  0.27998  Biso   1.000  O
  O57      1.0000 0.92043  0.06756  0.79728  Biso   1.000  O
  O58      1.0000 0.91851  0.90077  0.96649  Biso   1.000  O
  O59      1.0000 0.08680  0.90041  0.79770  Biso   1.000  O
  O60      1.0000 0.91884  0.19139  0.79887  Biso   1.000  O
  O61      1.0000 0.08805  0.19089  0.79694  Biso   1.000  O
  O62      1.0000 0.91925  0.19175  0.96524  Biso   1.000  O
  O63      1.0000 0.21105  0.89918  0.96566  Biso   1.000  O
  O64      1.0000 0.21055  0.06839  0.79887  Biso   1.000  O
  O65      1.0000 0.21141  0.89959  0.79851  Biso   1.000  O
  O66      1.0000 0.08722  0.90077  0.08949  Biso   1.000  O
  O67      1.0000 0.92043  0.89884  0.08899  Biso   1.000  O
  O68      1.0000 0.92007  0.06714  0.08984  Biso   1.000  O
  O69      1.0000 0.64416  0.46607  0.53256  Biso   1.000  O
  O70      1.0000 0.64608  0.63286  0.36335  Biso   1.000  O
  O71      1.0000 0.47778  0.63322  0.53214  Biso   1.000  O
  O72      1.0000 0.64575  0.34224  0.53097  Biso   1.000  O
  O73      1.0000 0.47654  0.34274  0.53290  Biso   1.000  O
  O74      1.0000 0.64533  0.34188  0.36460  Biso   1.000  O
  O75      1.0000 0.35353  0.63445  0.36418  Biso   1.000  O
  O76      1.0000 0.35403  0.46524  0.53097  Biso   1.000  O
  O77      1.0000 0.35318  0.63403  0.53133  Biso   1.000  O
  O78      1.0000 0.47737  0.63286  0.24035  Biso   1.000  O
  O79      1.0000 0.64416  0.63479  0.24085  Biso   1.000  O
  O80      1.0000 0.64452  0.46649  0.23999  Biso   1.000  O
  O81      1.0000 0.03438  0.01472  0.91282  Biso   1.000  O
  O82      1.0000 0.53020  0.51891  0.41702  Biso   1.000  O
  O83      1.0000 0.11491  0.81635  0.71120  Biso   1.000  O
  O84      1.0000 0.35387  0.81309  0.71445  Biso   1.000  O
  O85      1.0000 0.44968  0.71728  0.61864  Biso   1.000  O
  O86      1.0000 0.21072  0.72053  0.61539  Biso   1.000  O
  O87      1.0000 0.35267  0.09505  0.71569  Biso   1.000  O
  O88      1.0000 0.44986  0.19224  0.61850  Biso   1.000  O
  O89      1.0000 0.83290  0.81759  0.99315  Biso   1.000  O
  O90      1.0000 0.73571  0.72040  0.09034  Biso   1.000  O
  O91      1.0000 0.83591  0.34159  0.71252  Biso   1.000  O
  O92      1.0000 0.83277  0.34258  0.99334  Biso   1.000  O
  O93      1.0000 0.45827  0.71922  0.09014  Biso   1.000  O
  O94      1.0000 0.73696  0.43839  0.08915  Biso   1.000  O
  O95      1.0000 0.11473  0.34139  0.71134  Biso   1.000  O
  O96      1.0000 0.21191  0.43858  0.61415  Biso   1.000  O
  O97      1.0000 0.82887  0.81323  0.23950  Biso   1.000  O
  O98      1.0000 0.73168  0.71604  0.33669  Biso   1.000  O
  O99      1.0000 0.21171  0.71740  0.33671  Biso   1.000  O
  O100     1.0000 0.82762  0.09524  0.24069  Biso   1.000  O
  O101     1.0000 0.73181  0.19105  0.33650  Biso   1.000  O
  O102     1.0000 0.10631  0.81441  0.23970  Biso   1.000  O
  O103     1.0000 0.72868  0.19204  0.61732  Biso   1.000  O
  O104     1.0000 0.83408  0.09503  0.71433  Biso   1.000  O
  O105     1.0000 0.73051  0.43860  0.61551  Biso   1.000  O
