data_image0
_cell_length_a       18.1507
_cell_length_b       18.1507
_cell_length_c       18.1507
_cell_angle_alpha    60
_cell_angle_beta     60
_cell_angle_gamma    60

_symmetry_space_group_name_H-M    "P 1"
_symmetry_int_tables_number       1

loop_
  _symmetry_equiv_pos_as_xyz
  'x, y, z'

loop_
  _atom_site_label
  _atom_site_occupancy
  _atom_site_fract_x
  _atom_site_fract_y
  _atom_site_fract_z
  _atom_site_thermal_displace_type
  _atom_site_B_iso_or_equiv
  _atom_site_type_symbol
  Zn1      1.0000 0.29350  0.29350  0.29350  Biso   1.000  Zn
  Zn2      1.0000 0.29350  0.29350  0.11950  Biso   1.000  Zn
  Zn3      1.0000 0.29350  0.11950  0.29350  Biso   1.000  Zn
  Zn4      1.0000 0.11950  0.29350  0.29350  Biso   1.000  Zn
  Zn5      1.0000 0.70650  0.70650  0.70650  Biso   1.000  Zn
  Zn6      1.0000 0.70650  0.70650  0.88050  Biso   1.000  Zn
  Zn7      1.0000 0.88050  0.70650  0.70650  Biso   1.000  Zn
  Zn8      1.0000 0.70650  0.88050  0.70650  Biso   1.000  Zn
  H1       1.0000 0.45480  0.45480  0.15700  Biso   1.000  H
  H2       1.0000 0.45480  0.45480  0.93340  Biso   1.000  H
  H3       1.0000 0.15700  0.93340  0.45480  Biso   1.000  H
  H4       1.0000 0.93340  0.15700  0.45480  Biso   1.000  H
  H5       1.0000 0.45480  0.15700  0.93340  Biso   1.000  H
  H6       1.0000 0.45480  0.93340  0.15700  Biso   1.000  H
  H7       1.0000 0.15700  0.45480  0.45480  Biso   1.000  H
  H8       1.0000 0.93340  0.45480  0.45480  Biso   1.000  H
  H9       1.0000 0.45480  0.93340  0.45480  Biso   1.000  H
  H10      1.0000 0.45480  0.15700  0.45480  Biso   1.000  H
  H11      1.0000 0.15700  0.45480  0.93340  Biso   1.000  H
  H12      1.0000 0.93340  0.45480  0.15700  Biso   1.000  H
  H13      1.0000 0.54520  0.54520  0.84300  Biso   1.000  H
  H14      1.0000 0.54520  0.54520  0.06660  Biso   1.000  H
  H15      1.0000 0.06660  0.84300  0.54520  Biso   1.000  H
  H16      1.0000 0.84300  0.06660  0.54520  Biso   1.000  H
  H17      1.0000 0.84300  0.54520  0.06660  Biso   1.000  H
  H18      1.0000 0.06660  0.54520  0.84300  Biso   1.000  H
  H19      1.0000 0.54520  0.84300  0.54520  Biso   1.000  H
  H20      1.0000 0.54520  0.06660  0.54520  Biso   1.000  H
  H21      1.0000 0.06660  0.54520  0.54520  Biso   1.000  H
  H22      1.0000 0.84300  0.54520  0.54520  Biso   1.000  H
  H23      1.0000 0.54520  0.84300  0.06660  Biso   1.000  H
  H24      1.0000 0.54520  0.06660  0.84300  Biso   1.000  H
  C1       1.0000 0.47370  0.47370  0.09250  Biso   1.000  C
  C2       1.0000 0.47370  0.47370  0.96010  Biso   1.000  C
  C3       1.0000 0.09250  0.96010  0.47370  Biso   1.000  C
  C4       1.0000 0.96010  0.09250  0.47370  Biso   1.000  C
  C5       1.0000 0.47370  0.09250  0.96010  Biso   1.000  C
  C6       1.0000 0.47370  0.96010  0.09250  Biso   1.000  C
  C7       1.0000 0.09250  0.47370  0.47370  Biso   1.000  C
  C8       1.0000 0.96010  0.47370  0.47370  Biso   1.000  C
  C9       1.0000 0.47370  0.96010  0.47370  Biso   1.000  C
  C10      1.0000 0.47370  0.09250  0.47370  Biso   1.000  C
  C11      1.0000 0.09250  0.47370  0.96010  Biso   1.000  C
  C12      1.0000 0.96010  0.47370  0.09250  Biso   1.000  C
  C13      1.0000 0.52630  0.52630  0.90750  Biso   1.000  C
  C14      1.0000 0.52630  0.52630  0.03990  Biso   1.000  C
  C15      1.0000 0.03990  0.90750  0.52630  Biso   1.000  C
  C16      1.0000 0.90750  0.03990  0.52630  Biso   1.000  C
  C17      1.0000 0.90750  0.52630  0.03990  Biso   1.000  C
  C18      1.0000 0.03990  0.52630  0.90750  Biso   1.000  C
  C19      1.0000 0.52630  0.90750  0.52630  Biso   1.000  C
  C20      1.0000 0.52630  0.03990  0.52630  Biso   1.000  C
  C21      1.0000 0.03990  0.52630  0.52630  Biso   1.000  C
  C22      1.0000 0.90750  0.52630  0.52630  Biso   1.000  C
  C23      1.0000 0.52630  0.90750  0.03990  Biso   1.000  C
  C24      1.0000 0.52630  0.03990  0.90750  Biso   1.000  C
  C25      1.0000 0.38950  0.38950  0.11050  Biso   1.000  C
  C26      1.0000 0.44620  0.44620  0.05380  Biso   1.000  C
  C27      1.0000 0.11050  0.11050  0.38950  Biso   1.000  C
  C28      1.0000 0.05380  0.05380  0.44620  Biso   1.000  C
  C29      1.0000 0.38950  0.11050  0.11050  Biso   1.000  C
  C30      1.0000 0.44620  0.05380  0.05380  Biso   1.000  C
  C31      1.0000 0.11050  0.38950  0.38950  Biso   1.000  C
  C32      1.0000 0.05380  0.44620  0.44620  Biso   1.000  C
  C33      1.0000 0.38950  0.11050  0.38950  Biso   1.000  C
  C34      1.0000 0.44620  0.05380  0.44620  Biso   1.000  C
  C35      1.0000 0.11050  0.38950  0.11050  Biso   1.000  C
  C36      1.0000 0.05380  0.44620  0.05380  Biso   1.000  C
  C37      1.0000 0.61050  0.61050  0.88950  Biso   1.000  C
  C38      1.0000 0.55380  0.55380  0.94620  Biso   1.000  C
  C39      1.0000 0.88950  0.88950  0.61050  Biso   1.000  C
  C40      1.0000 0.94620  0.94620  0.55380  Biso   1.000  C
  C41      1.0000 0.88950  0.61050  0.88950  Biso   1.000  C
  C42      1.0000 0.94620  0.55380  0.94620  Biso   1.000  C
  C43      1.0000 0.61050  0.88950  0.61050  Biso   1.000  C
  C44      1.0000 0.55380  0.94620  0.55380  Biso   1.000  C
  C45      1.0000 0.88950  0.61050  0.61050  Biso   1.000  C
  C46      1.0000 0.94620  0.55380  0.55380  Biso   1.000  C
  C47      1.0000 0.61050  0.88950  0.88950  Biso   1.000  C
  C48      1.0000 0.55380  0.94620  0.94620  Biso   1.000  C
  O1       1.0000 0.25000  0.25000  0.25000  Biso   1.000  O
  O2       1.0000 0.75000  0.75000  0.75000  Biso   1.000  O
  O3       1.0000 0.36610  0.36610  0.19750  Biso   1.000  O
  O4       1.0000 0.36610  0.36610  0.07030  Biso   1.000  O
  O5       1.0000 0.19750  0.07030  0.36610  Biso   1.000  O
  O6       1.0000 0.07030  0.19750  0.36610  Biso   1.000  O
  O7       1.0000 0.36610  0.19750  0.07030  Biso   1.000  O
  O8       1.0000 0.36610  0.07030  0.19750  Biso   1.000  O
  O9       1.0000 0.19750  0.36610  0.36610  Biso   1.000  O
  O10      1.0000 0.07030  0.36610  0.36610  Biso   1.000  O
  O11      1.0000 0.36610  0.07030  0.36610  Biso   1.000  O
  O12      1.0000 0.36610  0.19750  0.36610  Biso   1.000  O
  O13      1.0000 0.19750  0.36610  0.07030  Biso   1.000  O
  O14      1.0000 0.07030  0.36610  0.19750  Biso   1.000  O
  O15      1.0000 0.63390  0.63390  0.80250  Biso   1.000  O
  O16      1.0000 0.63390  0.63390  0.92970  Biso   1.000  O
  O17      1.0000 0.92970  0.80250  0.63390  Biso   1.000  O
  O18      1.0000 0.80250  0.92970  0.63390  Biso   1.000  O
  O19      1.0000 0.80250  0.63390  0.92970  Biso   1.000  O
  O20      1.0000 0.92970  0.63390  0.80250  Biso   1.000  O
  O21      1.0000 0.63390  0.80250  0.63390  Biso   1.000  O
  O22      1.0000 0.63390  0.92970  0.63390  Biso   1.000  O
  O23      1.0000 0.92970  0.63390  0.63390  Biso   1.000  O
  O24      1.0000 0.80250  0.63390  0.63390  Biso   1.000  O
  O25      1.0000 0.63390  0.80250  0.92970  Biso   1.000  O
  O26      1.0000 0.63390  0.92970  0.80250  Biso   1.000  O
  Zn9      1.0000 0.00554  0.84566  0.13495  Biso   1.000  Zn
  Zn10     1.0000 0.00554  0.02151  0.13495  Biso   1.000  Zn
  Zn11     1.0000 0.82969  0.02151  0.13495  Biso   1.000  Zn
  Zn12     1.0000 0.00554  0.02151  0.95910  Biso   1.000  Zn
  Zn13     1.0000 0.43007  0.42943  0.54288  Biso   1.000  Zn
  Zn14     1.0000 0.43007  0.60528  0.54288  Biso   1.000  Zn
  Zn15     1.0000 0.60592  0.42943  0.54288  Biso   1.000  Zn
  Zn16     1.0000 0.43007  0.42943  0.71873  Biso   1.000  Zn
  H25      1.0000 0.87356  0.65922  0.29416  Biso   1.000  H
  H26      1.0000 0.16475  0.18072  0.00297  Biso   1.000  H
  H27      1.0000 0.64326  0.88952  0.29416  Biso   1.000  H
  H28      1.0000 0.16475  0.18072  0.77267  Biso   1.000  H
  H29      1.0000 0.64326  0.18072  0.00297  Biso   1.000  H
  H30      1.0000 0.16475  0.88952  0.29416  Biso   1.000  H
  H31      1.0000 0.87356  0.18072  0.77267  Biso   1.000  H
  H32      1.0000 0.16475  0.65922  0.29416  Biso   1.000  H
  H33      1.0000 0.16475  0.88952  0.77267  Biso   1.000  H
  H34      1.0000 0.87356  0.18072  0.29416  Biso   1.000  H
  H35      1.0000 0.16475  0.65922  0.00297  Biso   1.000  H
  H36      1.0000 0.64326  0.18072  0.29416  Biso   1.000  H
  H37      1.0000 0.56206  0.27022  0.38367  Biso   1.000  H
  H38      1.0000 0.27086  0.79172  0.67486  Biso   1.000  H
  H39      1.0000 0.79236  0.27022  0.38367  Biso   1.000  H
  H40      1.0000 0.27086  0.56142  0.90516  Biso   1.000  H
  H41      1.0000 0.79236  0.27022  0.67486  Biso   1.000  H
  H42      1.0000 0.27086  0.79172  0.38367  Biso   1.000  H
  H43      1.0000 0.56206  0.27022  0.90516  Biso   1.000  H
  H44      1.0000 0.27086  0.56142  0.38367  Biso   1.000  H
  H45      1.0000 0.27086  0.27022  0.90516  Biso   1.000  H
  H46      1.0000 0.56206  0.79172  0.38367  Biso   1.000  H
  H47      1.0000 0.27086  0.27022  0.67486  Biso   1.000  H
  H48      1.0000 0.79236  0.56142  0.38367  Biso   1.000  H
  C49      1.0000 0.80227  0.68594  0.31645  Biso   1.000  C
  C50      1.0000 0.18704  0.20300  0.93168  Biso   1.000  C
  C51      1.0000 0.66998  0.81823  0.31645  Biso   1.000  C
  C52      1.0000 0.18704  0.20300  0.79939  Biso   1.000  C
  C53      1.0000 0.66998  0.20300  0.93168  Biso   1.000  C
  C54      1.0000 0.18704  0.81823  0.31645  Biso   1.000  C
  C55      1.0000 0.80227  0.20300  0.79939  Biso   1.000  C
  C56      1.0000 0.18704  0.68594  0.31645  Biso   1.000  C
  C57      1.0000 0.18704  0.81823  0.79939  Biso   1.000  C
  C58      1.0000 0.80227  0.20300  0.31645  Biso   1.000  C
  C59      1.0000 0.18704  0.68594  0.93168  Biso   1.000  C
  C60      1.0000 0.66998  0.20300  0.31645  Biso   1.000  C
  C61      1.0000 0.63335  0.24794  0.36138  Biso   1.000  C
  C62      1.0000 0.24858  0.76500  0.74615  Biso   1.000  C
  C63      1.0000 0.76564  0.24794  0.36138  Biso   1.000  C
  C64      1.0000 0.24858  0.63271  0.87844  Biso   1.000  C
  C65      1.0000 0.76564  0.24794  0.74615  Biso   1.000  C
  C66      1.0000 0.24858  0.76500  0.36138  Biso   1.000  C
  C67      1.0000 0.63335  0.24794  0.87844  Biso   1.000  C
  C68      1.0000 0.24858  0.63271  0.36138  Biso   1.000  C
  C69      1.0000 0.24858  0.24794  0.87844  Biso   1.000  C
  C70      1.0000 0.63335  0.76500  0.36138  Biso   1.000  C
  C71      1.0000 0.24858  0.24794  0.74615  Biso   1.000  C
  C72      1.0000 0.76564  0.63271  0.36138  Biso   1.000  C
  C73      1.0000 0.82092  0.83689  0.23165  Biso   1.000  C
  C74      1.0000 0.76426  0.78022  0.28832  Biso   1.000  C
  C75      1.0000 0.10224  0.11820  0.95033  Biso   1.000  C
  C76      1.0000 0.15891  0.17487  0.89367  Biso   1.000  C
  C77      1.0000 0.82092  0.11820  0.95033  Biso   1.000  C
  C78      1.0000 0.76426  0.17487  0.89367  Biso   1.000  C
  C79      1.0000 0.10224  0.83689  0.23165  Biso   1.000  C
  C80      1.0000 0.15891  0.78022  0.28832  Biso   1.000  C
  C81      1.0000 0.10224  0.83689  0.95033  Biso   1.000  C
  C82      1.0000 0.15891  0.78022  0.89367  Biso   1.000  C
  C83      1.0000 0.82092  0.11820  0.23165  Biso   1.000  C
  C84      1.0000 0.76426  0.17487  0.28832  Biso   1.000  C
  C85      1.0000 0.61469  0.33274  0.44618  Biso   1.000  C
  C86      1.0000 0.67136  0.27607  0.38951  Biso   1.000  C
  C87      1.0000 0.33338  0.61405  0.72750  Biso   1.000  C
  C88      1.0000 0.27671  0.67072  0.78416  Biso   1.000  C
  C89      1.0000 0.61469  0.33274  0.72750  Biso   1.000  C
  C90      1.0000 0.67136  0.27607  0.78416  Biso   1.000  C
  C91      1.0000 0.33338  0.61405  0.44618  Biso   1.000  C
  C92      1.0000 0.27671  0.67072  0.38951  Biso   1.000  C
  C93      1.0000 0.33338  0.33274  0.72750  Biso   1.000  C
  C94      1.0000 0.27671  0.27607  0.78416  Biso   1.000  C
  C95      1.0000 0.61469  0.61405  0.44618  Biso   1.000  C
  C96      1.0000 0.67136  0.67072  0.38951  Biso   1.000  C
  O27      1.0000 0.96158  0.97755  0.09099  Biso   1.000  O
  O28      1.0000 0.47403  0.47339  0.58684  Biso   1.000  O
  O29      1.0000 0.90602  0.79777  0.20866  Biso   1.000  O
  O30      1.0000 0.07925  0.09521  0.03543  Biso   1.000  O
  O31      1.0000 0.78180  0.92199  0.20866  Biso   1.000  O
  O32      1.0000 0.07925  0.09521  0.91121  Biso   1.000  O
  O33      1.0000 0.78180  0.09521  0.03543  Biso   1.000  O
  O34      1.0000 0.07925  0.92199  0.20866  Biso   1.000  O
  O35      1.0000 0.90602  0.09521  0.91121  Biso   1.000  O
  O36      1.0000 0.07925  0.79777  0.20866  Biso   1.000  O
  O37      1.0000 0.07925  0.92199  0.91121  Biso   1.000  O
  O38      1.0000 0.90602  0.09521  0.20866  Biso   1.000  O
  O39      1.0000 0.07925  0.79777  0.03543  Biso   1.000  O
  O40      1.0000 0.78180  0.09521  0.20866  Biso   1.000  O
  O41      1.0000 0.52959  0.35572  0.46917  Biso   1.000  O
  O42      1.0000 0.35637  0.65317  0.64240  Biso   1.000  O
  O43      1.0000 0.65382  0.35572  0.46917  Biso   1.000  O
  O44      1.0000 0.35637  0.52895  0.76662  Biso   1.000  O
  O45      1.0000 0.65381  0.35573  0.64240  Biso   1.000  O
  O46      1.0000 0.35637  0.65317  0.46917  Biso   1.000  O
  O47      1.0000 0.52959  0.35573  0.76662  Biso   1.000  O
  O48      1.0000 0.35637  0.52895  0.46917  Biso   1.000  O
  O49      1.0000 0.35637  0.35573  0.76662  Biso   1.000  O
  O50      1.0000 0.52959  0.65317  0.46917  Biso   1.000  O
  O51      1.0000 0.35637  0.35573  0.64240  Biso   1.000  O
