data_image0
_cell_length_a       18.1507
_cell_length_b       18.1507
_cell_length_c       18.1507
_cell_angle_alpha    60
_cell_angle_beta     60
_cell_angle_gamma    60

_symmetry_space_group_name_H-M    "P 1"
_symmetry_int_tables_number       1

loop_
  _symmetry_equiv_pos_as_xyz
  'x, y, z'

loop_
  _atom_site_label
  _atom_site_occupancy
  _atom_site_fract_x
  _atom_site_fract_y
  _atom_site_fract_z
  _atom_site_thermal_displace_type
  _atom_site_B_iso_or_equiv
  _atom_site_type_symbol
  C1       1.0000 0.29350  0.29350  0.29350  Biso   1.000  C
  C2       1.0000 0.29350  0.29350  0.11950  Biso   1.000  C
  C3       1.0000 0.29350  0.11950  0.29350  Biso   1.000  C
  C4       1.0000 0.11950  0.29350  0.29350  Biso   1.000  C
  C5       1.0000 0.70650  0.70650  0.70650  Biso   1.000  C
  C6       1.0000 0.70650  0.70650  0.88050  Biso   1.000  C
  C7       1.0000 0.88050  0.70650  0.70650  Biso   1.000  C
  C8       1.0000 0.70650  0.88050  0.70650  Biso   1.000  C
  C9       1.0000 0.45480  0.45480  0.15700  Biso   1.000  C
  C10      1.0000 0.45480  0.45480  0.93340  Biso   1.000  C
  C11      1.0000 0.15700  0.93340  0.45480  Biso   1.000  C
  C12      1.0000 0.93340  0.15700  0.45480  Biso   1.000  C
  C13      1.0000 0.45480  0.15700  0.93340  Biso   1.000  C
  C14      1.0000 0.45480  0.93340  0.15700  Biso   1.000  C
  C15      1.0000 0.15700  0.45480  0.45480  Biso   1.000  C
  C16      1.0000 0.93340  0.45480  0.45480  Biso   1.000  C
  C17      1.0000 0.45480  0.93340  0.45480  Biso   1.000  C
  C18      1.0000 0.45480  0.15700  0.45480  Biso   1.000  C
  C19      1.0000 0.15700  0.45480  0.93340  Biso   1.000  C
  C20      1.0000 0.93340  0.45480  0.15700  Biso   1.000  C
  C21      1.0000 0.54520  0.54520  0.84300  Biso   1.000  C
  C22      1.0000 0.54520  0.54520  0.06660  Biso   1.000  C
  C23      1.0000 0.06660  0.84300  0.54520  Biso   1.000  C
  C24      1.0000 0.84300  0.06660  0.54520  Biso   1.000  C
  C25      1.0000 0.84300  0.54520  0.06660  Biso   1.000  C
  C26      1.0000 0.06660  0.54520  0.84300  Biso   1.000  C
  C27      1.0000 0.54520  0.84300  0.54520  Biso   1.000  C
  C28      1.0000 0.54520  0.06660  0.54520  Biso   1.000  C
  C29      1.0000 0.06660  0.54520  0.54520  Biso   1.000  C
  C30      1.0000 0.84300  0.54520  0.54520  Biso   1.000  C
  C31      1.0000 0.54520  0.84300  0.06660  Biso   1.000  C
  C32      1.0000 0.54520  0.06660  0.84300  Biso   1.000  C
  C33      1.0000 0.47370  0.47370  0.09250  Biso   1.000  C
  C34      1.0000 0.47370  0.47370  0.96010  Biso   1.000  C
  C35      1.0000 0.09250  0.96010  0.47370  Biso   1.000  C
  C36      1.0000 0.96010  0.09250  0.47370  Biso   1.000  C
  C37      1.0000 0.47370  0.09250  0.96010  Biso   1.000  C
  C38      1.0000 0.47370  0.96010  0.09250  Biso   1.000  C
  C39      1.0000 0.09250  0.47370  0.47370  Biso   1.000  C
  C40      1.0000 0.96010  0.47370  0.47370  Biso   1.000  C
  C41      1.0000 0.47370  0.96010  0.47370  Biso   1.000  C
  C42      1.0000 0.47370  0.09250  0.47370  Biso   1.000  C
  C43      1.0000 0.09250  0.47370  0.96010  Biso   1.000  C
  C44      1.0000 0.96010  0.47370  0.09250  Biso   1.000  C
  C45      1.0000 0.52630  0.52630  0.90750  Biso   1.000  C
  C46      1.0000 0.52630  0.52630  0.03990  Biso   1.000  C
  C47      1.0000 0.03990  0.90750  0.52630  Biso   1.000  C
  C48      1.0000 0.90750  0.03990  0.52630  Biso   1.000  C
  C49      1.0000 0.90750  0.52630  0.03990  Biso   1.000  C
  C50      1.0000 0.03990  0.52630  0.90750  Biso   1.000  C
  C51      1.0000 0.52630  0.90750  0.52630  Biso   1.000  C
  C52      1.0000 0.52630  0.03990  0.52630  Biso   1.000  C
  C53      1.0000 0.03990  0.52630  0.52630  Biso   1.000  C
  C54      1.0000 0.90750  0.52630  0.52630  Biso   1.000  C
  C55      1.0000 0.52630  0.90750  0.03990  Biso   1.000  C
  C56      1.0000 0.52630  0.03990  0.90750  Biso   1.000  C
  C57      1.0000 0.38950  0.38950  0.11050  Biso   1.000  C
  C58      1.0000 0.44620  0.44620  0.05380  Biso   1.000  C
  C59      1.0000 0.11050  0.11050  0.38950  Biso   1.000  C
  C60      1.0000 0.05380  0.05380  0.44620  Biso   1.000  C
  C61      1.0000 0.38950  0.11050  0.11050  Biso   1.000  C
  C62      1.0000 0.44620  0.05380  0.05380  Biso   1.000  C
  C63      1.0000 0.11050  0.38950  0.38950  Biso   1.000  C
  C64      1.0000 0.05380  0.44620  0.44620  Biso   1.000  C
  C65      1.0000 0.38950  0.11050  0.38950  Biso   1.000  C
  C66      1.0000 0.44620  0.05380  0.44620  Biso   1.000  C
  C67      1.0000 0.11050  0.38950  0.11050  Biso   1.000  C
  C68      1.0000 0.05380  0.44620  0.05380  Biso   1.000  C
  C69      1.0000 0.61050  0.61050  0.88950  Biso   1.000  C
  C70      1.0000 0.55380  0.55380  0.94620  Biso   1.000  C
  C71      1.0000 0.88950  0.88950  0.61050  Biso   1.000  C
  C72      1.0000 0.94620  0.94620  0.55380  Biso   1.000  C
  C73      1.0000 0.88950  0.61050  0.88950  Biso   1.000  C
  C74      1.0000 0.94620  0.55380  0.94620  Biso   1.000  C
  C75      1.0000 0.61050  0.88950  0.61050  Biso   1.000  C
  C76      1.0000 0.55380  0.94620  0.55380  Biso   1.000  C
  C77      1.0000 0.88950  0.61050  0.61050  Biso   1.000  C
  C78      1.0000 0.94620  0.55380  0.55380  Biso   1.000  C
  C79      1.0000 0.61050  0.88950  0.88950  Biso   1.000  C
  C80      1.0000 0.55380  0.94620  0.94620  Biso   1.000  C
  C81      1.0000 0.25000  0.25000  0.25000  Biso   1.000  C
  C82      1.0000 0.75000  0.75000  0.75000  Biso   1.000  C
  C83      1.0000 0.36610  0.36610  0.19750  Biso   1.000  C
  C84      1.0000 0.36610  0.36610  0.07030  Biso   1.000  C
  C85      1.0000 0.19750  0.07030  0.36610  Biso   1.000  C
  C86      1.0000 0.07030  0.19750  0.36610  Biso   1.000  C
  C87      1.0000 0.36610  0.19750  0.07030  Biso   1.000  C
  C88      1.0000 0.36610  0.07030  0.19750  Biso   1.000  C
  C89      1.0000 0.19750  0.36610  0.36610  Biso   1.000  C
  C90      1.0000 0.07030  0.36610  0.36610  Biso   1.000  C
  C91      1.0000 0.36610  0.07030  0.36610  Biso   1.000  C
  C92      1.0000 0.36610  0.19750  0.36610  Biso   1.000  C
  C93      1.0000 0.19750  0.36610  0.07030  Biso   1.000  C
  C94      1.0000 0.07030  0.36610  0.19750  Biso   1.000  C
  C95      1.0000 0.63390  0.63390  0.80250  Biso   1.000  C
  C96      1.0000 0.63390  0.63390  0.92970  Biso   1.000  C
  C97      1.0000 0.92970  0.80250  0.63390  Biso   1.000  C
  C98      1.0000 0.80250  0.92970  0.63390  Biso   1.000  C
  C99      1.0000 0.80250  0.63390  0.92970  Biso   1.000  C
  C100     1.0000 0.92970  0.63390  0.80250  Biso   1.000  C
  C101     1.0000 0.63390  0.80250  0.63390  Biso   1.000  C
  C102     1.0000 0.63390  0.92970  0.63390  Biso   1.000  C
  C103     1.0000 0.92970  0.63390  0.63390  Biso   1.000  C
  C104     1.0000 0.80250  0.63390  0.63390  Biso   1.000  C
  C105     1.0000 0.63390  0.80250  0.92970  Biso   1.000  C
  C106     1.0000 0.63390  0.92970  0.80250  Biso   1.000  C
  O1       1.0000 0.00554  0.84566  0.13495  Biso   1.000  O
  O2       1.0000 0.00554  0.02235  0.13495  Biso   1.000  O
  O3       1.0000 0.82885  0.02235  0.13495  Biso   1.000  O
  O4       1.0000 0.00554  0.02235  0.95826  Biso   1.000  O
  O5       1.0000 0.42998  0.42974  0.54234  Biso   1.000  O
  O6       1.0000 0.42998  0.60644  0.54234  Biso   1.000  O
  O7       1.0000 0.60667  0.42974  0.54234  Biso   1.000  O
  O8       1.0000 0.42998  0.42974  0.71904  Biso   1.000  O
  O9       1.0000 0.87171  0.66261  0.29339  Biso   1.000  O
  O10      1.0000 0.16398  0.18079  0.00112  Biso   1.000  O
  O11      1.0000 0.64580  0.88852  0.29339  Biso   1.000  O
  O12      1.0000 0.16398  0.18079  0.77521  Biso   1.000  O
  O13      1.0000 0.64580  0.18079  0.00112  Biso   1.000  O
  O14      1.0000 0.16398  0.88852  0.29339  Biso   1.000  O
  O15      1.0000 0.87171  0.18079  0.77521  Biso   1.000  O
  O16      1.0000 0.16398  0.66261  0.29339  Biso   1.000  O
  O17      1.0000 0.16398  0.88852  0.77521  Biso   1.000  O
  O18      1.0000 0.87171  0.18079  0.29339  Biso   1.000  O
  O19      1.0000 0.16398  0.66261  0.00112  Biso   1.000  O
  O20      1.0000 0.64580  0.18079  0.29339  Biso   1.000  O
  O21      1.0000 0.56381  0.27131  0.38391  Biso   1.000  O
  O22      1.0000 0.27154  0.78948  0.67618  Biso   1.000  O
  O23      1.0000 0.78972  0.27131  0.38391  Biso   1.000  O
  O24      1.0000 0.27154  0.56358  0.90208  Biso   1.000  O
  O25      1.0000 0.78972  0.27131  0.67618  Biso   1.000  O
  O26      1.0000 0.27154  0.78948  0.38391  Biso   1.000  O
  O27      1.0000 0.56381  0.27131  0.90208  Biso   1.000  O
  O28      1.0000 0.27154  0.56358  0.38391  Biso   1.000  O
  O29      1.0000 0.27154  0.27131  0.90208  Biso   1.000  O
  O30      1.0000 0.56381  0.78948  0.38391  Biso   1.000  O
  O31      1.0000 0.27154  0.27131  0.67618  Biso   1.000  O
  O32      1.0000 0.78972  0.56358  0.38391  Biso   1.000  O
  O33      1.0000 0.80192  0.68601  0.31659  Biso   1.000  O
  O34      1.0000 0.18718  0.20399  0.93133  Biso   1.000  O
  O35      1.0000 0.66920  0.81873  0.31659  Biso   1.000  O
  O36      1.0000 0.18718  0.20399  0.79861  Biso   1.000  O
  O37      1.0000 0.66920  0.20399  0.93133  Biso   1.000  O
  O38      1.0000 0.18718  0.81873  0.31659  Biso   1.000  O
  O39      1.0000 0.80192  0.20399  0.79861  Biso   1.000  O
  O40      1.0000 0.18718  0.68601  0.31659  Biso   1.000  O
  O41      1.0000 0.18718  0.81873  0.79861  Biso   1.000  O
  O42      1.0000 0.80192  0.20399  0.31659  Biso   1.000  O
  O43      1.0000 0.18718  0.68601  0.93133  Biso   1.000  O
  O44      1.0000 0.66920  0.20399  0.31659  Biso   1.000  O
  O45      1.0000 0.63360  0.24811  0.36071  Biso   1.000  O
  O46      1.0000 0.24835  0.76609  0.74597  Biso   1.000  O
  O47      1.0000 0.76632  0.24811  0.36071  Biso   1.000  O
  O48      1.0000 0.24835  0.63337  0.87869  Biso   1.000  O
  O49      1.0000 0.76632  0.24811  0.74597  Biso   1.000  O
  O50      1.0000 0.24835  0.76609  0.36071  Biso   1.000  O
  O51      1.0000 0.63360  0.24811  0.87869  Biso   1.000  O
  O52      1.0000 0.24835  0.63337  0.36071  Biso   1.000  O
  O53      1.0000 0.24835  0.24811  0.87869  Biso   1.000  O
  O54      1.0000 0.63360  0.76609  0.36071  Biso   1.000  O
  O55      1.0000 0.24835  0.24811  0.74597  Biso   1.000  O
  O56      1.0000 0.76632  0.63337  0.36071  Biso   1.000  O
  O57      1.0000 0.81866  0.83547  0.23349  Biso   1.000  O
  O58      1.0000 0.76471  0.78152  0.28744  Biso   1.000  O
  O59      1.0000 0.10408  0.12089  0.94807  Biso   1.000  O
  O60      1.0000 0.15803  0.17484  0.89412  Biso   1.000  O
  O61      1.0000 0.81866  0.12089  0.94807  Biso   1.000  O
  O62      1.0000 0.76471  0.17484  0.89412  Biso   1.000  O
  O63      1.0000 0.10408  0.83547  0.23349  Biso   1.000  O
  O64      1.0000 0.15803  0.78152  0.28744  Biso   1.000  O
  O65      1.0000 0.10408  0.83547  0.94807  Biso   1.000  O
  O66      1.0000 0.15803  0.78152  0.89412  Biso   1.000  O
  O67      1.0000 0.81866  0.12089  0.23349  Biso   1.000  O
  O68      1.0000 0.76471  0.17484  0.28744  Biso   1.000  O
  O69      1.0000 0.61686  0.33121  0.44381  Biso   1.000  O
  O70      1.0000 0.67082  0.27726  0.38986  Biso   1.000  O
  O71      1.0000 0.33145  0.61662  0.72922  Biso   1.000  O
  O72      1.0000 0.27749  0.67058  0.78318  Biso   1.000  O
  O73      1.0000 0.61686  0.33121  0.72922  Biso   1.000  O
  O74      1.0000 0.67082  0.27726  0.78318  Biso   1.000  O
  O75      1.0000 0.33145  0.61662  0.44381  Biso   1.000  O
  O76      1.0000 0.27749  0.67058  0.38986  Biso   1.000  O
  O77      1.0000 0.33145  0.33121  0.72922  Biso   1.000  O
  O78      1.0000 0.27749  0.27726  0.78318  Biso   1.000  O
  O79      1.0000 0.61686  0.61662  0.44381  Biso   1.000  O
  O80      1.0000 0.67082  0.67058  0.38986  Biso   1.000  O
  O81      1.0000 0.96137  0.97818  0.09078  Biso   1.000  O
  O82      1.0000 0.47415  0.47392  0.58652  Biso   1.000  O
  O83      1.0000 0.90600  0.79937  0.20787  Biso   1.000  O
  O84      1.0000 0.07846  0.09527  0.03541  Biso   1.000  O
  O85      1.0000 0.78256  0.92281  0.20787  Biso   1.000  O
  O86      1.0000 0.07846  0.09527  0.91197  Biso   1.000  O
  O87      1.0000 0.78256  0.09527  0.03541  Biso   1.000  O
  O88      1.0000 0.07846  0.92281  0.20787  Biso   1.000  O
  O89      1.0000 0.90600  0.09527  0.91197  Biso   1.000  O
  O90      1.0000 0.07846  0.79937  0.20787  Biso   1.000  O
  O91      1.0000 0.07846  0.92281  0.91197  Biso   1.000  O
  O92      1.0000 0.90600  0.09527  0.20787  Biso   1.000  O
  O93      1.0000 0.07846  0.79937  0.03541  Biso   1.000  O
  O94      1.0000 0.78256  0.09527  0.20787  Biso   1.000  O
  O95      1.0000 0.52952  0.35683  0.46943  Biso   1.000  O
  O96      1.0000 0.35706  0.65273  0.64189  Biso   1.000  O
  O97      1.0000 0.65296  0.35683  0.46943  Biso   1.000  O
  O98      1.0000 0.35706  0.52929  0.76533  Biso   1.000  O
  O99      1.0000 0.65296  0.35683  0.64189  Biso   1.000  O
  O100     1.0000 0.35706  0.65273  0.46943  Biso   1.000  O
  O101     1.0000 0.52952  0.35683  0.76533  Biso   1.000  O
  O102     1.0000 0.35706  0.52929  0.46943  Biso   1.000  O
  O103     1.0000 0.35706  0.35683  0.76533  Biso   1.000  O
  O104     1.0000 0.52952  0.65273  0.46943  Biso   1.000  O
  O105     1.0000 0.35706  0.35683  0.64189  Biso   1.000  O
