data_image0
_cell_length_a       18.283
_cell_length_b       18.283
_cell_length_c       18.283
_cell_angle_alpha    60
_cell_angle_beta     60
_cell_angle_gamma    60

_symmetry_space_group_name_H-M    "P 1"
_symmetry_int_tables_number       1

loop_
  _symmetry_equiv_pos_as_xyz
  'x, y, z'

loop_
  _atom_site_label
  _atom_site_occupancy
  _atom_site_fract_x
  _atom_site_fract_y
  _atom_site_fract_z
  _atom_site_thermal_displace_type
  _atom_site_B_iso_or_equiv
  _atom_site_type_symbol
  Zn1      1.0000 0.20670  0.37990  0.20670  Biso   1.000  Zn
  Zn2      1.0000 0.37990  0.20670  0.20670  Biso   1.000  Zn
  Zn3      1.0000 0.20670  0.20670  0.20670  Biso   1.000  Zn
  Zn4      1.0000 0.20670  0.20670  0.37990  Biso   1.000  Zn
  Zn5      1.0000 0.62010  0.79330  0.79330  Biso   1.000  Zn
  Zn6      1.0000 0.79330  0.62010  0.79330  Biso   1.000  Zn
  Zn7      1.0000 0.79330  0.79330  0.79330  Biso   1.000  Zn
  Zn8      1.0000 0.79330  0.79330  0.62010  Biso   1.000  Zn
  H1       1.0000 0.04940  0.56380  0.04940  Biso   1.000  H
  H2       1.0000 0.56380  0.04940  0.33740  Biso   1.000  H
  H3       1.0000 0.04940  0.33740  0.04940  Biso   1.000  H
  H4       1.0000 0.33740  0.04940  0.56380  Biso   1.000  H
  H5       1.0000 0.04940  0.04940  0.33740  Biso   1.000  H
  H6       1.0000 0.56380  0.33740  0.04940  Biso   1.000  H
  H7       1.0000 0.04940  0.04940  0.56380  Biso   1.000  H
  H8       1.0000 0.33740  0.56380  0.04940  Biso   1.000  H
  H9       1.0000 0.04940  0.33740  0.56380  Biso   1.000  H
  H10      1.0000 0.56380  0.04940  0.04940  Biso   1.000  H
  H11      1.0000 0.04940  0.56380  0.33740  Biso   1.000  H
  H12      1.0000 0.33740  0.04940  0.04940  Biso   1.000  H
  H13      1.0000 0.43620  0.95060  0.95060  Biso   1.000  H
  H14      1.0000 0.95060  0.43620  0.66260  Biso   1.000  H
  H15      1.0000 0.66260  0.95060  0.95060  Biso   1.000  H
  H16      1.0000 0.95060  0.66260  0.43620  Biso   1.000  H
  H17      1.0000 0.95060  0.95060  0.66260  Biso   1.000  H
  H18      1.0000 0.66260  0.43620  0.95060  Biso   1.000  H
  H19      1.0000 0.95060  0.95060  0.43620  Biso   1.000  H
  H20      1.0000 0.43620  0.66260  0.95060  Biso   1.000  H
  H21      1.0000 0.66260  0.95060  0.43620  Biso   1.000  H
  H22      1.0000 0.95060  0.43620  0.95060  Biso   1.000  H
  H23      1.0000 0.43620  0.95060  0.66260  Biso   1.000  H
  H24      1.0000 0.95060  0.66260  0.95060  Biso   1.000  H
  C1       1.0000 0.02700  0.53820  0.02700  Biso   1.000  C
  C2       1.0000 0.53820  0.02700  0.40780  Biso   1.000  C
  C3       1.0000 0.02700  0.40780  0.02700  Biso   1.000  C
  C4       1.0000 0.40780  0.02700  0.53820  Biso   1.000  C
  C5       1.0000 0.02700  0.02700  0.40780  Biso   1.000  C
  C6       1.0000 0.53820  0.40780  0.02700  Biso   1.000  C
  C7       1.0000 0.02700  0.02700  0.53820  Biso   1.000  C
  C8       1.0000 0.40780  0.53820  0.02700  Biso   1.000  C
  C9       1.0000 0.02700  0.40780  0.53820  Biso   1.000  C
  C10      1.0000 0.53820  0.02700  0.02700  Biso   1.000  C
  C11      1.0000 0.02700  0.53820  0.40780  Biso   1.000  C
  C12      1.0000 0.40780  0.02700  0.02700  Biso   1.000  C
  C13      1.0000 0.46180  0.97300  0.97300  Biso   1.000  C
  C14      1.0000 0.97300  0.46180  0.59220  Biso   1.000  C
  C15      1.0000 0.59220  0.97300  0.97300  Biso   1.000  C
  C16      1.0000 0.97300  0.59220  0.46180  Biso   1.000  C
  C17      1.0000 0.97300  0.97300  0.59220  Biso   1.000  C
  C18      1.0000 0.59220  0.46180  0.97300  Biso   1.000  C
  C19      1.0000 0.97300  0.97300  0.46180  Biso   1.000  C
  C20      1.0000 0.46180  0.59220  0.97300  Biso   1.000  C
  C21      1.0000 0.59220  0.97300  0.46180  Biso   1.000  C
  C22      1.0000 0.97300  0.46180  0.97300  Biso   1.000  C
  C23      1.0000 0.46180  0.97300  0.59220  Biso   1.000  C
  C24      1.0000 0.97300  0.59220  0.97300  Biso   1.000  C
  C25      1.0000 0.11070  0.38930  0.11070  Biso   1.000  C
  C26      1.0000 0.05420  0.44580  0.05420  Biso   1.000  C
  C27      1.0000 0.38930  0.11070  0.38930  Biso   1.000  C
  C28      1.0000 0.44580  0.05420  0.44580  Biso   1.000  C
  C29      1.0000 0.11070  0.11070  0.38930  Biso   1.000  C
  C30      1.0000 0.05420  0.05420  0.44580  Biso   1.000  C
  C31      1.0000 0.38930  0.38930  0.11070  Biso   1.000  C
  C32      1.0000 0.44580  0.44580  0.05420  Biso   1.000  C
  C33      1.0000 0.11070  0.38930  0.38930  Biso   1.000  C
  C34      1.0000 0.05420  0.44580  0.44580  Biso   1.000  C
  C35      1.0000 0.38930  0.11070  0.11070  Biso   1.000  C
  C36      1.0000 0.44580  0.05420  0.05420  Biso   1.000  C
  C37      1.0000 0.61070  0.88930  0.88930  Biso   1.000  C
  C38      1.0000 0.55420  0.94580  0.94580  Biso   1.000  C
  C39      1.0000 0.88930  0.61070  0.61070  Biso   1.000  C
  C40      1.0000 0.94580  0.55420  0.55420  Biso   1.000  C
  C41      1.0000 0.88930  0.88930  0.61070  Biso   1.000  C
  C42      1.0000 0.94580  0.94580  0.55420  Biso   1.000  C
  C43      1.0000 0.61070  0.61070  0.88930  Biso   1.000  C
  C44      1.0000 0.55420  0.55420  0.94580  Biso   1.000  C
  C45      1.0000 0.61070  0.88930  0.61070  Biso   1.000  C
  C46      1.0000 0.55420  0.94580  0.55420  Biso   1.000  C
  C47      1.0000 0.88930  0.61070  0.88930  Biso   1.000  C
  C48      1.0000 0.94580  0.55420  0.94580  Biso   1.000  C
  O1       1.0000 0.25000  0.25000  0.25000  Biso   1.000  O
  O2       1.0000 0.75000  0.75000  0.75000  Biso   1.000  O
  O3       1.0000 0.13430  0.42670  0.13430  Biso   1.000  O
  O4       1.0000 0.42670  0.13430  0.30470  Biso   1.000  O
  O5       1.0000 0.13430  0.30470  0.13430  Biso   1.000  O
  O6       1.0000 0.30470  0.13430  0.42670  Biso   1.000  O
  O7       1.0000 0.13430  0.13430  0.30470  Biso   1.000  O
  O8       1.0000 0.42670  0.30470  0.13430  Biso   1.000  O
  O9       1.0000 0.13430  0.13430  0.42670  Biso   1.000  O
  O10      1.0000 0.30470  0.42670  0.13430  Biso   1.000  O
  O11      1.0000 0.13430  0.30470  0.42670  Biso   1.000  O
  O12      1.0000 0.42670  0.13430  0.13430  Biso   1.000  O
  O13      1.0000 0.13430  0.42670  0.30470  Biso   1.000  O
  O14      1.0000 0.30470  0.13430  0.13430  Biso   1.000  O
  O15      1.0000 0.57330  0.86570  0.86570  Biso   1.000  O
  O16      1.0000 0.86570  0.57330  0.69530  Biso   1.000  O
  O17      1.0000 0.69530  0.86570  0.86570  Biso   1.000  O
  O18      1.0000 0.86570  0.69530  0.57330  Biso   1.000  O
  O19      1.0000 0.86570  0.86570  0.69530  Biso   1.000  O
  O20      1.0000 0.69530  0.57330  0.86570  Biso   1.000  O
  O21      1.0000 0.86570  0.86570  0.57330  Biso   1.000  O
  O22      1.0000 0.57330  0.69530  0.86570  Biso   1.000  O
  O23      1.0000 0.69530  0.86570  0.57330  Biso   1.000  O
  O24      1.0000 0.86570  0.57330  0.86570  Biso   1.000  O
  O25      1.0000 0.57330  0.86570  0.69530  Biso   1.000  O
  O26      1.0000 0.86570  0.69530  0.86570  Biso   1.000  O
  Zn9      1.0000 0.99249  0.97286  0.87085  Biso   1.000  Zn
  Zn10     1.0000 0.99254  0.14489  0.87080  Biso   1.000  Zn
  Zn11     1.0000 0.16457  0.97286  0.87085  Biso   1.000  Zn
  Zn12     1.0000 0.99254  0.97281  0.04287  Biso   1.000  Zn
  Zn13     1.0000 0.57495  0.56248  0.46048  Biso   1.000  Zn
  Zn14     1.0000 0.57491  0.39045  0.46053  Biso   1.000  Zn
  Zn15     1.0000 0.40287  0.56248  0.46048  Biso   1.000  Zn
  Zn16     1.0000 0.57490  0.56253  0.28845  Biso   1.000  Zn
  C49      1.0000 0.81337  0.17230  0.69267  Biso   1.000  C
  C50      1.0000 0.19219  0.79447  0.69068  Biso   1.000  C
  C51      1.0000 0.81277  0.79547  0.07029  Biso   1.000  C
  C52      1.0000 0.81438  0.31001  0.69168  Biso   1.000  C
  C53      1.0000 0.81239  0.31102  0.07049  Biso   1.000  C
  C54      1.0000 0.19200  0.30982  0.69108  Biso   1.000  C
  C55      1.0000 0.32243  0.79469  0.07028  Biso   1.000  C
  C56      1.0000 0.32343  0.79269  0.69246  Biso   1.000  C
  C57      1.0000 0.32223  0.17231  0.69346  Biso   1.000  C
  C58      1.0000 0.18471  0.79369  0.20801  Biso   1.000  C
  C59      1.0000 0.80688  0.17250  0.20901  Biso   1.000  C
  C60      1.0000 0.80788  0.79308  0.20782  Biso   1.000  C
  C61      1.0000 0.75407  0.36304  0.63865  Biso   1.000  C
  C62      1.0000 0.37525  0.74087  0.64065  Biso   1.000  C
  C63      1.0000 0.75467  0.73987  0.26103  Biso   1.000  C
  C64      1.0000 0.75306  0.22533  0.63964  Biso   1.000  C
  C65      1.0000 0.75506  0.22432  0.26083  Biso   1.000  C
  C66      1.0000 0.37544  0.22552  0.64025  Biso   1.000  C
  C67      1.0000 0.24502  0.74065  0.26104  Biso   1.000  C
  C68      1.0000 0.24401  0.74265  0.63886  Biso   1.000  C
  C69      1.0000 0.24521  0.36303  0.63787  Biso   1.000  C
  C70      1.0000 0.38274  0.74165  0.12331  Biso   1.000  C
  C71      1.0000 0.76057  0.36284  0.12231  Biso   1.000  C
  C72      1.0000 0.75957  0.74226  0.12350  Biso   1.000  C
  C73      1.0000 0.84076  0.21063  0.71907  Biso   1.000  C
  C74      1.0000 0.89902  0.15237  0.77732  Biso   1.000  C
  C75      1.0000 0.23031  0.82108  0.10861  Biso   1.000  C
  C76      1.0000 0.17206  0.87934  0.05036  Biso   1.000  C
  C77      1.0000 0.72668  0.32471  0.61225  Biso   1.000  C
  C78      1.0000 0.66843  0.38297  0.55400  Biso   1.000  C
  C79      1.0000 0.33713  0.71426  0.22271  Biso   1.000  C
  C80      1.0000 0.39539  0.65600  0.28096  Biso   1.000  C
  C81      1.0000 0.84057  0.82088  0.10881  Biso   1.000  C
  C82      1.0000 0.89854  0.87886  0.05084  Biso   1.000  C
  C83      1.0000 0.23050  0.21083  0.71887  Biso   1.000  C
  C84      1.0000 0.17253  0.15285  0.77685  Biso   1.000  C
  C85      1.0000 0.72688  0.71446  0.22251  Biso   1.000  C
  C86      1.0000 0.66890  0.65648  0.28049  Biso   1.000  C
  C87      1.0000 0.33694  0.32451  0.61245  Biso   1.000  C
  C88      1.0000 0.39492  0.38249  0.55448  Biso   1.000  C
  C89      1.0000 0.23071  0.82068  0.71867  Biso   1.000  C
  C90      1.0000 0.17273  0.87866  0.77665  Biso   1.000  C
  C91      1.0000 0.84036  0.21103  0.10901  Biso   1.000  C
  C92      1.0000 0.89834  0.15305  0.05103  Biso   1.000  C
  C93      1.0000 0.33674  0.71466  0.61265  Biso   1.000  C
  C94      1.0000 0.39471  0.65668  0.55468  Biso   1.000  C
  C95      1.0000 0.72708  0.32431  0.22231  Biso   1.000  C
  C96      1.0000 0.66911  0.38229  0.28029  Biso   1.000  C
  O27      1.0000 0.92145  0.06875  0.79817  Biso   1.000  O
  O28      1.0000 0.91953  0.90177  0.96757  Biso   1.000  O
  O29      1.0000 0.08802  0.90141  0.79859  Biso   1.000  O
  O30      1.0000 0.91986  0.19272  0.79976  Biso   1.000  O
  O31      1.0000 0.08926  0.19222  0.79783  Biso   1.000  O
  O32      1.0000 0.92028  0.19308  0.96632  Biso   1.000  O
  O33      1.0000 0.21240  0.90018  0.96673  Biso   1.000  O
  O34      1.0000 0.21190  0.06958  0.79976  Biso   1.000  O
  O35      1.0000 0.21276  0.90060  0.79940  Biso   1.000  O
  O36      1.0000 0.08843  0.90177  0.09070  Biso   1.000  O
  O37      1.0000 0.92146  0.89985  0.09021  Biso   1.000  O
  O38      1.0000 0.92109  0.06833  0.09106  Biso   1.000  O
  O39      1.0000 0.64599  0.46659  0.53315  Biso   1.000  O
  O40      1.0000 0.64792  0.63357  0.36376  Biso   1.000  O
  O41      1.0000 0.47943  0.63393  0.53274  Biso   1.000  O
  O42      1.0000 0.64758  0.34262  0.53157  Biso   1.000  O
  O43      1.0000 0.47819  0.34312  0.53349  Biso   1.000  O
  O44      1.0000 0.64717  0.34226  0.36501  Biso   1.000  O
  O45      1.0000 0.35504  0.63516  0.36459  Biso   1.000  O
  O46      1.0000 0.35554  0.46576  0.53157  Biso   1.000  O
  O47      1.0000 0.35469  0.63474  0.53192  Biso   1.000  O
  O48      1.0000 0.47901  0.63357  0.24062  Biso   1.000  O
  O49      1.0000 0.64599  0.63549  0.24112  Biso   1.000  O
  O50      1.0000 0.64635  0.46701  0.24026  Biso   1.000  O
  O51      1.0000 0.03554  0.01585  0.91384  Biso   1.000  O
  O52      1.0000 0.53191  0.51949  0.41748  Biso   1.000  O
  H25      1.0000 0.11615  0.81726  0.71199  Biso   1.000  H
  H26      1.0000 0.35538  0.81400  0.71525  Biso   1.000  H
  H27      1.0000 0.45130  0.71808  0.61933  Biso   1.000  H
  H28      1.0000 0.21207  0.72134  0.61608  Biso   1.000  H
  H29      1.0000 0.35418  0.09627  0.71649  Biso   1.000  H
  H30      1.0000 0.45147  0.19357  0.61919  Biso   1.000  H
  H31      1.0000 0.83383  0.81850  0.99426  Biso   1.000  H
  H32      1.0000 0.73654  0.72120  0.09156  Biso   1.000  H
  H33      1.0000 0.83684  0.34197  0.71331  Biso   1.000  H
  H34      1.0000 0.83370  0.34296  0.99445  Biso   1.000  H
  H35      1.0000 0.45878  0.72002  0.09136  Biso   1.000  H
  H36      1.0000 0.73778  0.43888  0.09037  Biso   1.000  H
  H37      1.0000 0.11597  0.34177  0.71213  Biso   1.000  H
  H38      1.0000 0.21327  0.43907  0.61483  Biso   1.000  H
  H39      1.0000 0.83091  0.81414  0.23977  Biso   1.000  H
  H40      1.0000 0.73362  0.71684  0.33706  Biso   1.000  H
  H41      1.0000 0.21306  0.71820  0.33708  Biso   1.000  H
  H42      1.0000 0.82966  0.09646  0.24096  Biso   1.000  H
  H43      1.0000 0.73375  0.19238  0.33687  Biso   1.000  H
  H44      1.0000 0.10866  0.81532  0.23996  Biso   1.000  H
  H45      1.0000 0.73061  0.19337  0.61801  Biso   1.000  H
  H46      1.0000 0.83501  0.09625  0.71513  Biso   1.000  H
  H47      1.0000 0.73244  0.43909  0.61619  Biso   1.000  H
