data_image0
_cell_length_a       18.3034
_cell_length_b       18.3034
_cell_length_c       18.3034
_cell_angle_alpha    60
_cell_angle_beta     60
_cell_angle_gamma    60

_symmetry_space_group_name_H-M    "P 1"
_symmetry_int_tables_number       1

loop_
  _symmetry_equiv_pos_as_xyz
  'x, y, z'

loop_
  _atom_site_label
  _atom_site_occupancy
  _atom_site_fract_x
  _atom_site_fract_y
  _atom_site_fract_z
  _atom_site_thermal_displace_type
  _atom_site_B_iso_or_equiv
  _atom_site_type_symbol
  C1       1.0000 0.29349  0.29350  0.29350  Biso   1.000  C
  C2       1.0000 0.29349  0.29350  0.11951  Biso   1.000  C
  C3       1.0000 0.29349  0.11951  0.29350  Biso   1.000  C
  C4       1.0000 0.11950  0.29350  0.29350  Biso   1.000  C
  C5       1.0000 0.70651  0.70650  0.70650  Biso   1.000  C
  C6       1.0000 0.70651  0.70650  0.88049  Biso   1.000  C
  C7       1.0000 0.88050  0.70650  0.70650  Biso   1.000  C
  C8       1.0000 0.70651  0.88049  0.70650  Biso   1.000  C
  C9       1.0000 0.45470  0.45470  0.15630  Biso   1.000  C
  C10      1.0000 0.45470  0.45470  0.93430  Biso   1.000  C
  C11      1.0000 0.15630  0.93430  0.45470  Biso   1.000  C
  C12      1.0000 0.93430  0.15630  0.45470  Biso   1.000  C
  C13      1.0000 0.45470  0.15630  0.93430  Biso   1.000  C
  C14      1.0000 0.45470  0.93430  0.15630  Biso   1.000  C
  C15      1.0000 0.15630  0.45470  0.45470  Biso   1.000  C
  C16      1.0000 0.93430  0.45470  0.45470  Biso   1.000  C
  C17      1.0000 0.45470  0.93430  0.45470  Biso   1.000  C
  C18      1.0000 0.45470  0.15630  0.45470  Biso   1.000  C
  C19      1.0000 0.15630  0.45470  0.93430  Biso   1.000  C
  C20      1.0000 0.93430  0.45470  0.15630  Biso   1.000  C
  C21      1.0000 0.54530  0.54530  0.84370  Biso   1.000  C
  C22      1.0000 0.54530  0.54530  0.06570  Biso   1.000  C
  C23      1.0000 0.06570  0.84370  0.54530  Biso   1.000  C
  C24      1.0000 0.84370  0.06570  0.54530  Biso   1.000  C
  C25      1.0000 0.84370  0.54530  0.06570  Biso   1.000  C
  C26      1.0000 0.06570  0.54530  0.84370  Biso   1.000  C
  C27      1.0000 0.54530  0.84370  0.54530  Biso   1.000  C
  C28      1.0000 0.54530  0.06570  0.54530  Biso   1.000  C
  C29      1.0000 0.06570  0.54530  0.54530  Biso   1.000  C
  C30      1.0000 0.84370  0.54530  0.54530  Biso   1.000  C
  C31      1.0000 0.54530  0.84370  0.06570  Biso   1.000  C
  C32      1.0000 0.54530  0.06570  0.84370  Biso   1.000  C
  C33      1.0000 0.47355  0.47355  0.09143  Biso   1.000  C
  C34      1.0000 0.47355  0.47355  0.96147  Biso   1.000  C
  C35      1.0000 0.09143  0.96147  0.47355  Biso   1.000  C
  C36      1.0000 0.96147  0.09143  0.47355  Biso   1.000  C
  C37      1.0000 0.47355  0.09143  0.96147  Biso   1.000  C
  C38      1.0000 0.47355  0.96147  0.09143  Biso   1.000  C
  C39      1.0000 0.09143  0.47355  0.47355  Biso   1.000  C
  C40      1.0000 0.96147  0.47355  0.47355  Biso   1.000  C
  C41      1.0000 0.47355  0.96147  0.47355  Biso   1.000  C
  C42      1.0000 0.47355  0.09143  0.47355  Biso   1.000  C
  C43      1.0000 0.09143  0.47355  0.96147  Biso   1.000  C
  C44      1.0000 0.96147  0.47355  0.09143  Biso   1.000  C
  C45      1.0000 0.52645  0.52645  0.90857  Biso   1.000  C
  C46      1.0000 0.52645  0.52645  0.03853  Biso   1.000  C
  C47      1.0000 0.03853  0.90857  0.52645  Biso   1.000  C
  C48      1.0000 0.90857  0.03853  0.52645  Biso   1.000  C
  C49      1.0000 0.90857  0.52645  0.03853  Biso   1.000  C
  C50      1.0000 0.03853  0.52645  0.90857  Biso   1.000  C
  C51      1.0000 0.52645  0.90857  0.52645  Biso   1.000  C
  C52      1.0000 0.52645  0.03853  0.52645  Biso   1.000  C
  C53      1.0000 0.03853  0.52645  0.52645  Biso   1.000  C
  C54      1.0000 0.90857  0.52645  0.52645  Biso   1.000  C
  C55      1.0000 0.52645  0.90857  0.03853  Biso   1.000  C
  C56      1.0000 0.52645  0.03853  0.90857  Biso   1.000  C
  C57      1.0000 0.38830  0.38830  0.11170  Biso   1.000  C
  C58      1.0000 0.44623  0.44623  0.05377  Biso   1.000  C
  C59      1.0000 0.11170  0.11170  0.38830  Biso   1.000  C
  C60      1.0000 0.05377  0.05377  0.44623  Biso   1.000  C
  C61      1.0000 0.38830  0.11170  0.11170  Biso   1.000  C
  C62      1.0000 0.44623  0.05377  0.05377  Biso   1.000  C
  C63      1.0000 0.11170  0.38830  0.38830  Biso   1.000  C
  C64      1.0000 0.05377  0.44623  0.44623  Biso   1.000  C
  C65      1.0000 0.38830  0.11170  0.38830  Biso   1.000  C
  C66      1.0000 0.44623  0.05377  0.44623  Biso   1.000  C
  C67      1.0000 0.11170  0.38830  0.11170  Biso   1.000  C
  C68      1.0000 0.05377  0.44623  0.05377  Biso   1.000  C
  C69      1.0000 0.61170  0.61170  0.88830  Biso   1.000  C
  C70      1.0000 0.55377  0.55377  0.94623  Biso   1.000  C
  C71      1.0000 0.88830  0.88830  0.61170  Biso   1.000  C
  C72      1.0000 0.94623  0.94623  0.55377  Biso   1.000  C
  C73      1.0000 0.88830  0.61170  0.88830  Biso   1.000  C
  C74      1.0000 0.94623  0.55377  0.94623  Biso   1.000  C
  C75      1.0000 0.61170  0.88830  0.61170  Biso   1.000  C
  C76      1.0000 0.55377  0.94623  0.55377  Biso   1.000  C
  C77      1.0000 0.88830  0.61170  0.61170  Biso   1.000  C
  C78      1.0000 0.94623  0.55377  0.55377  Biso   1.000  C
  C79      1.0000 0.61170  0.88830  0.88830  Biso   1.000  C
  C80      1.0000 0.55377  0.94623  0.94623  Biso   1.000  C
  C81      1.0000 0.36613  0.36613  0.19527  Biso   1.000  C
  C82      1.0000 0.36613  0.36613  0.07247  Biso   1.000  C
  C83      1.0000 0.19527  0.07247  0.36613  Biso   1.000  C
  C84      1.0000 0.07247  0.19527  0.36613  Biso   1.000  C
  C85      1.0000 0.36613  0.19527  0.07247  Biso   1.000  C
  C86      1.0000 0.36613  0.07247  0.19527  Biso   1.000  C
  C87      1.0000 0.19527  0.36613  0.36613  Biso   1.000  C
  C88      1.0000 0.07247  0.36613  0.36613  Biso   1.000  C
  C89      1.0000 0.36613  0.07247  0.36613  Biso   1.000  C
  C90      1.0000 0.36613  0.19527  0.36613  Biso   1.000  C
  C91      1.0000 0.19527  0.36613  0.07247  Biso   1.000  C
  C92      1.0000 0.07247  0.36613  0.19527  Biso   1.000  C
  C93      1.0000 0.63387  0.63387  0.80473  Biso   1.000  C
  C94      1.0000 0.63387  0.63387  0.92753  Biso   1.000  C
  C95      1.0000 0.92753  0.80473  0.63387  Biso   1.000  C
  C96      1.0000 0.80473  0.92753  0.63387  Biso   1.000  C
  C97      1.0000 0.80473  0.63387  0.92753  Biso   1.000  C
  C98      1.0000 0.92753  0.63387  0.80473  Biso   1.000  C
  C99      1.0000 0.63387  0.80473  0.63387  Biso   1.000  C
  C100     1.0000 0.63387  0.92753  0.63387  Biso   1.000  C
  C101     1.0000 0.92753  0.63387  0.63387  Biso   1.000  C
  C102     1.0000 0.80473  0.63387  0.63387  Biso   1.000  C
  C103     1.0000 0.63387  0.80473  0.92753  Biso   1.000  C
  C104     1.0000 0.63387  0.92753  0.80473  Biso   1.000  C
  C105     1.0000 0.25000  0.25000  0.25000  Biso   1.000  C
  C106     1.0000 0.75000  0.75000  0.75000  Biso   1.000  C
  O1       1.0000 0.50183  0.51934  0.33457  Biso   1.000  O
  O2       1.0000 0.50183  0.51934  0.50827  Biso   1.000  O
  O3       1.0000 0.32813  0.51934  0.50827  Biso   1.000  O
  O4       1.0000 0.50183  0.34564  0.50827  Biso   1.000  O
  O5       1.0000 0.91452  0.93201  0.09465  Biso   1.000  O
  O6       1.0000 0.91452  0.93201  0.92094  Biso   1.000  O
  O7       1.0000 0.91452  0.10572  0.92094  Biso   1.000  O
  O8       1.0000 0.08823  0.93201  0.92094  Biso   1.000  O
  O9       1.0000 0.66322  0.68072  0.14940  Biso   1.000  O
  O10      1.0000 0.66322  0.68072  0.36973  Biso   1.000  O
  O11      1.0000 0.14297  0.38081  0.66965  Biso   1.000  O
  O12      1.0000 0.36330  0.16047  0.66965  Biso   1.000  O
  O13      1.0000 0.66322  0.16047  0.36973  Biso   1.000  O
  O14      1.0000 0.66322  0.38081  0.14940  Biso   1.000  O
  O15      1.0000 0.14297  0.68072  0.66965  Biso   1.000  O
  O16      1.0000 0.36330  0.68072  0.66965  Biso   1.000  O
  O17      1.0000 0.66322  0.38081  0.66965  Biso   1.000  O
  O18      1.0000 0.66322  0.16047  0.66965  Biso   1.000  O
  O19      1.0000 0.14297  0.68072  0.36973  Biso   1.000  O
  O20      1.0000 0.36330  0.68072  0.14940  Biso   1.000  O
  O21      1.0000 0.75314  0.77064  0.27982  Biso   1.000  O
  O22      1.0000 0.75314  0.77064  0.05948  Biso   1.000  O
  O23      1.0000 0.05305  0.29089  0.75957  Biso   1.000  O
  O24      1.0000 0.27339  0.07055  0.75957  Biso   1.000  O
  O25      1.0000 0.27339  0.77064  0.05948  Biso   1.000  O
  O26      1.0000 0.05305  0.77064  0.27982  Biso   1.000  O
  O27      1.0000 0.75314  0.29089  0.75957  Biso   1.000  O
  O28      1.0000 0.75314  0.07055  0.75957  Biso   1.000  O
  O29      1.0000 0.05305  0.77064  0.75957  Biso   1.000  O
  O30      1.0000 0.27339  0.77064  0.75957  Biso   1.000  O
  O31      1.0000 0.75314  0.29089  0.05948  Biso   1.000  O
  O32      1.0000 0.75314  0.07055  0.27982  Biso   1.000  O
  O33      1.0000 0.68142  0.69892  0.17629  Biso   1.000  O
  O34      1.0000 0.68142  0.69892  0.30643  Biso   1.000  O
  O35      1.0000 0.16986  0.31751  0.68785  Biso   1.000  O
  O36      1.0000 0.30000  0.18736  0.68785  Biso   1.000  O
  O37      1.0000 0.68142  0.18736  0.30643  Biso   1.000  O
  O38      1.0000 0.68142  0.31751  0.17629  Biso   1.000  O
  O39      1.0000 0.16986  0.69892  0.68785  Biso   1.000  O
  O40      1.0000 0.30000  0.69892  0.68785  Biso   1.000  O
  O41      1.0000 0.68142  0.31751  0.68785  Biso   1.000  O
  O42      1.0000 0.68142  0.18736  0.68785  Biso   1.000  O
  O43      1.0000 0.16986  0.69892  0.30643  Biso   1.000  O
  O44      1.0000 0.30000  0.69892  0.17629  Biso   1.000  O
  O45      1.0000 0.73493  0.75243  0.25292  Biso   1.000  O
  O46      1.0000 0.73493  0.75243  0.12278  Biso   1.000  O
  O47      1.0000 0.11635  0.26400  0.74136  Biso   1.000  O
  O48      1.0000 0.24649  0.13385  0.74136  Biso   1.000  O
  O49      1.0000 0.24649  0.75243  0.12278  Biso   1.000  O
  O50      1.0000 0.11635  0.75243  0.25292  Biso   1.000  O
  O51      1.0000 0.73493  0.26400  0.74136  Biso   1.000  O
  O52      1.0000 0.73493  0.13385  0.74136  Biso   1.000  O
  O53      1.0000 0.11635  0.75243  0.74136  Biso   1.000  O
  O54      1.0000 0.24649  0.75243  0.74136  Biso   1.000  O
  O55      1.0000 0.73493  0.26400  0.12278  Biso   1.000  O
  O56      1.0000 0.73493  0.13385  0.25292  Biso   1.000  O
  O57      1.0000 0.59668  0.61418  0.32658  Biso   1.000  O
  O58      1.0000 0.65462  0.67212  0.26864  Biso   1.000  O
  O59      1.0000 0.32015  0.33765  0.60311  Biso   1.000  O
  O60      1.0000 0.26221  0.27971  0.66105  Biso   1.000  O
  O61      1.0000 0.59668  0.33765  0.32658  Biso   1.000  O
  O62      1.0000 0.65462  0.27971  0.26864  Biso   1.000  O
  O63      1.0000 0.32015  0.61418  0.60311  Biso   1.000  O
  O64      1.0000 0.26221  0.67212  0.66105  Biso   1.000  O
  O65      1.0000 0.59668  0.33765  0.60311  Biso   1.000  O
  O66      1.0000 0.65462  0.27971  0.66105  Biso   1.000  O
  O67      1.0000 0.32015  0.61418  0.32658  Biso   1.000  O
  O68      1.0000 0.26221  0.67212  0.26864  Biso   1.000  O
  O69      1.0000 0.81967  0.83717  0.10264  Biso   1.000  O
  O70      1.0000 0.76174  0.77924  0.16058  Biso   1.000  O
  O71      1.0000 0.09621  0.11371  0.82610  Biso   1.000  O
  O72      1.0000 0.15415  0.17165  0.76817  Biso   1.000  O
  O73      1.0000 0.09621  0.83717  0.10264  Biso   1.000  O
  O74      1.0000 0.15415  0.77924  0.16058  Biso   1.000  O
  O75      1.0000 0.81967  0.11371  0.82610  Biso   1.000  O
  O76      1.0000 0.76174  0.17165  0.76817  Biso   1.000  O
  O77      1.0000 0.09621  0.83717  0.82610  Biso   1.000  O
  O78      1.0000 0.15415  0.77924  0.76817  Biso   1.000  O
  O79      1.0000 0.81967  0.11371  0.10264  Biso   1.000  O
  O80      1.0000 0.76174  0.17165  0.16058  Biso   1.000  O
  O81      1.0000 0.45841  0.47592  0.46484  Biso   1.000  O
  O82      1.0000 0.95794  0.97544  0.96437  Biso   1.000  O
  O83      1.0000 0.57442  0.59193  0.28799  Biso   1.000  O
  O84      1.0000 0.57442  0.59193  0.40968  Biso   1.000  O
  O85      1.0000 0.28156  0.42075  0.58085  Biso   1.000  O
  O86      1.0000 0.40325  0.29906  0.58085  Biso   1.000  O
  O87      1.0000 0.57442  0.29906  0.40968  Biso   1.000  O
  O88      1.0000 0.57442  0.42075  0.28799  Biso   1.000  O
  O89      1.0000 0.28156  0.59193  0.58085  Biso   1.000  O
  O90      1.0000 0.40325  0.59193  0.58085  Biso   1.000  O
  O91      1.0000 0.57442  0.42075  0.58085  Biso   1.000  O
  O92      1.0000 0.57442  0.29906  0.58085  Biso   1.000  O
  O93      1.0000 0.28156  0.59193  0.40968  Biso   1.000  O
  O94      1.0000 0.40325  0.59193  0.28799  Biso   1.000  O
  O95      1.0000 0.84193  0.85943  0.14122  Biso   1.000  O
  O96      1.0000 0.84193  0.85943  0.01954  Biso   1.000  O
  O97      1.0000 0.01311  0.15230  0.84836  Biso   1.000  O
  O98      1.0000 0.13479  0.03061  0.84836  Biso   1.000  O
  O99      1.0000 0.13479  0.85943  0.01954  Biso   1.000  O
  O100     1.0000 0.01311  0.85943  0.14122  Biso   1.000  O
  O101     1.0000 0.84193  0.15230  0.84836  Biso   1.000  O
  O102     1.0000 0.84193  0.03061  0.84836  Biso   1.000  O
  O103     1.0000 0.01311  0.85943  0.84836  Biso   1.000  O
  O104     1.0000 0.13479  0.85943  0.84836  Biso   1.000  O
  O105     1.0000 0.84193  0.15230  0.01954  Biso   1.000  O
