data_image0
_cell_length_a       18.1507
_cell_length_b       18.1507
_cell_length_c       18.1507
_cell_angle_alpha    60
_cell_angle_beta     60
_cell_angle_gamma    60

_symmetry_space_group_name_H-M    "P 1"
_symmetry_int_tables_number       1

loop_
  _symmetry_equiv_pos_as_xyz
  'x, y, z'

loop_
  _atom_site_label
  _atom_site_occupancy
  _atom_site_fract_x
  _atom_site_fract_y
  _atom_site_fract_z
  _atom_site_thermal_displace_type
  _atom_site_B_iso_or_equiv
  _atom_site_type_symbol
  Zn1      1.0000 0.29350  0.29350  0.29350  Biso   1.000  Zn
  Zn2      1.0000 0.29350  0.29350  0.11950  Biso   1.000  Zn
  Zn3      1.0000 0.29350  0.11950  0.29350  Biso   1.000  Zn
  Zn4      1.0000 0.11950  0.29350  0.29350  Biso   1.000  Zn
  Zn5      1.0000 0.70650  0.70650  0.70650  Biso   1.000  Zn
  Zn6      1.0000 0.70650  0.70650  0.88050  Biso   1.000  Zn
  Zn7      1.0000 0.88050  0.70650  0.70650  Biso   1.000  Zn
  Zn8      1.0000 0.70650  0.88050  0.70650  Biso   1.000  Zn
  H1       1.0000 0.45480  0.45480  0.15700  Biso   1.000  H
  H2       1.0000 0.45480  0.45480  0.93340  Biso   1.000  H
  H3       1.0000 0.15700  0.93340  0.45480  Biso   1.000  H
  H4       1.0000 0.93340  0.15700  0.45480  Biso   1.000  H
  H5       1.0000 0.45480  0.15700  0.93340  Biso   1.000  H
  H6       1.0000 0.45480  0.93340  0.15700  Biso   1.000  H
  H7       1.0000 0.15700  0.45480  0.45480  Biso   1.000  H
  H8       1.0000 0.93340  0.45480  0.45480  Biso   1.000  H
  H9       1.0000 0.45480  0.93340  0.45480  Biso   1.000  H
  H10      1.0000 0.45480  0.15700  0.45480  Biso   1.000  H
  H11      1.0000 0.15700  0.45480  0.93340  Biso   1.000  H
  H12      1.0000 0.93340  0.45480  0.15700  Biso   1.000  H
  H13      1.0000 0.54520  0.54520  0.84300  Biso   1.000  H
  H14      1.0000 0.54520  0.54520  0.06660  Biso   1.000  H
  H15      1.0000 0.06660  0.84300  0.54520  Biso   1.000  H
  H16      1.0000 0.84300  0.06660  0.54520  Biso   1.000  H
  H17      1.0000 0.84300  0.54520  0.06660  Biso   1.000  H
  H18      1.0000 0.06660  0.54520  0.84300  Biso   1.000  H
  H19      1.0000 0.54520  0.84300  0.54520  Biso   1.000  H
  H20      1.0000 0.54520  0.06660  0.54520  Biso   1.000  H
  H21      1.0000 0.06660  0.54520  0.54520  Biso   1.000  H
  H22      1.0000 0.84300  0.54520  0.54520  Biso   1.000  H
  H23      1.0000 0.54520  0.84300  0.06660  Biso   1.000  H
  H24      1.0000 0.54520  0.06660  0.84300  Biso   1.000  H
  C1       1.0000 0.47370  0.47370  0.09250  Biso   1.000  C
  C2       1.0000 0.47370  0.47370  0.96010  Biso   1.000  C
  C3       1.0000 0.09250  0.96010  0.47370  Biso   1.000  C
  C4       1.0000 0.96010  0.09250  0.47370  Biso   1.000  C
  C5       1.0000 0.47370  0.09250  0.96010  Biso   1.000  C
  C6       1.0000 0.47370  0.96010  0.09250  Biso   1.000  C
  C7       1.0000 0.09250  0.47370  0.47370  Biso   1.000  C
  C8       1.0000 0.96010  0.47370  0.47370  Biso   1.000  C
  C9       1.0000 0.47370  0.96010  0.47370  Biso   1.000  C
  C10      1.0000 0.47370  0.09250  0.47370  Biso   1.000  C
  C11      1.0000 0.09250  0.47370  0.96010  Biso   1.000  C
  C12      1.0000 0.96010  0.47370  0.09250  Biso   1.000  C
  C13      1.0000 0.52630  0.52630  0.90750  Biso   1.000  C
  C14      1.0000 0.52630  0.52630  0.03990  Biso   1.000  C
  C15      1.0000 0.03990  0.90750  0.52630  Biso   1.000  C
  C16      1.0000 0.90750  0.03990  0.52630  Biso   1.000  C
  C17      1.0000 0.90750  0.52630  0.03990  Biso   1.000  C
  C18      1.0000 0.03990  0.52630  0.90750  Biso   1.000  C
  C19      1.0000 0.52630  0.90750  0.52630  Biso   1.000  C
  C20      1.0000 0.52630  0.03990  0.52630  Biso   1.000  C
  C21      1.0000 0.03990  0.52630  0.52630  Biso   1.000  C
  C22      1.0000 0.90750  0.52630  0.52630  Biso   1.000  C
  C23      1.0000 0.52630  0.90750  0.03990  Biso   1.000  C
  C24      1.0000 0.52630  0.03990  0.90750  Biso   1.000  C
  C25      1.0000 0.38950  0.38950  0.11050  Biso   1.000  C
  C26      1.0000 0.44620  0.44620  0.05380  Biso   1.000  C
  C27      1.0000 0.11050  0.11050  0.38950  Biso   1.000  C
  C28      1.0000 0.05380  0.05380  0.44620  Biso   1.000  C
  C29      1.0000 0.38950  0.11050  0.11050  Biso   1.000  C
  C30      1.0000 0.44620  0.05380  0.05380  Biso   1.000  C
  C31      1.0000 0.11050  0.38950  0.38950  Biso   1.000  C
  C32      1.0000 0.05380  0.44620  0.44620  Biso   1.000  C
  C33      1.0000 0.38950  0.11050  0.38950  Biso   1.000  C
  C34      1.0000 0.44620  0.05380  0.44620  Biso   1.000  C
  C35      1.0000 0.11050  0.38950  0.11050  Biso   1.000  C
  C36      1.0000 0.05380  0.44620  0.05380  Biso   1.000  C
  C37      1.0000 0.61050  0.61050  0.88950  Biso   1.000  C
  C38      1.0000 0.55380  0.55380  0.94620  Biso   1.000  C
  C39      1.0000 0.88950  0.88950  0.61050  Biso   1.000  C
  C40      1.0000 0.94620  0.94620  0.55380  Biso   1.000  C
  C41      1.0000 0.88950  0.61050  0.88950  Biso   1.000  C
  C42      1.0000 0.94620  0.55380  0.94620  Biso   1.000  C
  C43      1.0000 0.61050  0.88950  0.61050  Biso   1.000  C
  C44      1.0000 0.55380  0.94620  0.55380  Biso   1.000  C
  C45      1.0000 0.88950  0.61050  0.61050  Biso   1.000  C
  C46      1.0000 0.94620  0.55380  0.55380  Biso   1.000  C
  C47      1.0000 0.61050  0.88950  0.88950  Biso   1.000  C
  C48      1.0000 0.55380  0.94620  0.94620  Biso   1.000  C
  O1       1.0000 0.25000  0.25000  0.25000  Biso   1.000  O
  O2       1.0000 0.75000  0.75000  0.75000  Biso   1.000  O
  O3       1.0000 0.36610  0.36610  0.19750  Biso   1.000  O
  O4       1.0000 0.36610  0.36610  0.07030  Biso   1.000  O
  O5       1.0000 0.19750  0.07030  0.36610  Biso   1.000  O
  O6       1.0000 0.07030  0.19750  0.36610  Biso   1.000  O
  O7       1.0000 0.36610  0.19750  0.07030  Biso   1.000  O
  O8       1.0000 0.36610  0.07030  0.19750  Biso   1.000  O
  O9       1.0000 0.19750  0.36610  0.36610  Biso   1.000  O
  O10      1.0000 0.07030  0.36610  0.36610  Biso   1.000  O
  O11      1.0000 0.36610  0.07030  0.36610  Biso   1.000  O
  O12      1.0000 0.36610  0.19750  0.36610  Biso   1.000  O
  O13      1.0000 0.19750  0.36610  0.07030  Biso   1.000  O
  O14      1.0000 0.07030  0.36610  0.19750  Biso   1.000  O
  O15      1.0000 0.63390  0.63390  0.80250  Biso   1.000  O
  O16      1.0000 0.63390  0.63390  0.92970  Biso   1.000  O
  O17      1.0000 0.92970  0.80250  0.63390  Biso   1.000  O
  O18      1.0000 0.80250  0.92970  0.63390  Biso   1.000  O
  O19      1.0000 0.80250  0.63390  0.92970  Biso   1.000  O
  O20      1.0000 0.92970  0.63390  0.80250  Biso   1.000  O
  O21      1.0000 0.63390  0.80250  0.63390  Biso   1.000  O
  O22      1.0000 0.63390  0.92970  0.63390  Biso   1.000  O
  O23      1.0000 0.92970  0.63390  0.63390  Biso   1.000  O
  O24      1.0000 0.80250  0.63390  0.63390  Biso   1.000  O
  O25      1.0000 0.63390  0.80250  0.92970  Biso   1.000  O
  O26      1.0000 0.63390  0.92970  0.80250  Biso   1.000  O
  Zn9      1.0000 0.68997  0.35149  0.47234  Biso   1.000  Zn
  Zn10     1.0000 0.09901  0.76052  0.06317  Biso   1.000  Zn
  Zn11     1.0000 0.92315  0.93638  0.06317  Biso   1.000  Zn
  Zn12     1.0000 0.51411  0.52735  0.47234  Biso   1.000  Zn
  Zn13     1.0000 0.51377  0.35115  0.64841  Biso   1.000  Zn
  Zn14     1.0000 0.51397  0.35134  0.47223  Biso   1.000  Zn
  Zn15     1.0000 0.09935  0.93672  0.88709  Biso   1.000  Zn
  Zn16     1.0000 0.09916  0.93653  0.06327  Biso   1.000  Zn
  H25      1.0000 0.35313  0.70239  0.61670  Biso   1.000  H
  H26      1.0000 0.34989  0.49197  0.82960  Biso   1.000  H
  H27      1.0000 0.35405  0.70130  0.31129  Biso   1.000  H
  H28      1.0000 0.35002  0.49451  0.30898  Biso   1.000  H
  H29      1.0000 0.86674  0.49249  0.31381  Biso   1.000  H
  H30      1.0000 0.74810  0.09737  0.91880  Biso   1.000  H
  H31      1.0000 0.95853  0.10060  0.70590  Biso   1.000  H
  H32      1.0000 0.74919  0.09645  0.22421  Biso   1.000  H
  H33      1.0000 0.95599  0.10047  0.22652  Biso   1.000  H
  H34      1.0000 0.95800  0.58375  0.22169  Biso   1.000  H
  H35      1.0000 0.25999  0.58548  0.91880  Biso   1.000  H
  H36      1.0000 0.26323  0.79591  0.70590  Biso   1.000  H
  H37      1.0000 0.25907  0.58657  0.22421  Biso   1.000  H
  H38      1.0000 0.26310  0.79337  0.22652  Biso   1.000  H
  H39      1.0000 0.74638  0.79538  0.22169  Biso   1.000  H
  H40      1.0000 0.86502  0.19050  0.61670  Biso   1.000  H
  H41      1.0000 0.65459  0.18727  0.82960  Biso   1.000  H
  H42      1.0000 0.86393  0.19142  0.31129  Biso   1.000  H
  H43      1.0000 0.65713  0.18740  0.30898  Biso   1.000  H
  H44      1.0000 0.65512  0.70412  0.31381  Biso   1.000  H
  H45      1.0000 0.35122  0.18859  0.61459  Biso   1.000  H
  H46      1.0000 0.35010  0.18748  0.83191  Biso   1.000  H
  H47      1.0000 0.26190  0.09928  0.92091  Biso   1.000  H
  H48      1.0000 0.26302  0.10040  0.70359  Biso   1.000  H
  C49      1.0000 0.41939  0.53592  0.65331  Biso   1.000  C
  C50      1.0000 0.35935  0.59434  0.71485  Biso   1.000  C
  C51      1.0000 0.33432  0.67655  0.67925  Biso   1.000  C
  C52      1.0000 0.33310  0.55441  0.80345  Biso   1.000  C
  C53      1.0000 0.42061  0.53272  0.37465  Biso   1.000  C
  C54      1.0000 0.36299  0.59154  0.31904  Biso   1.000  C
  C55      1.0000 0.33596  0.67496  0.29319  Biso   1.000  C
  C56      1.0000 0.33313  0.55685  0.29138  Biso   1.000  C
  C57      1.0000 0.84050  0.55494  0.29359  Biso   1.000  C
  C58      1.0000 0.91458  0.03110  0.88219  Biso   1.000  C
  C59      1.0000 0.85616  0.09114  0.82065  Biso   1.000  C
  C60      1.0000 0.77395  0.11618  0.85625  Biso   1.000  C
  C61      1.0000 0.89609  0.11739  0.73205  Biso   1.000  C
  C62      1.0000 0.91778  0.02988  0.16085  Biso   1.000  C
  C63      1.0000 0.85895  0.08750  0.21647  Biso   1.000  C
  C64      1.0000 0.77553  0.11455  0.24231  Biso   1.000  C
  C65      1.0000 0.89364  0.11736  0.24412  Biso   1.000  C
  C66      1.0000 0.89555  0.61000  0.24191  Biso   1.000  C
  C67      1.0000 0.19373  0.75196  0.88219  Biso   1.000  C
  C68      1.0000 0.25377  0.69353  0.82065  Biso   1.000  C
  C69      1.0000 0.27880  0.61133  0.85625  Biso   1.000  C
  C70      1.0000 0.28002  0.73346  0.73205  Biso   1.000  C
  C71      1.0000 0.19251  0.75516  0.16085  Biso   1.000  C
  C72      1.0000 0.25013  0.69633  0.21647  Biso   1.000  C
  C73      1.0000 0.27717  0.61292  0.24231  Biso   1.000  C
  C74      1.0000 0.27999  0.73102  0.24412  Biso   1.000  C
  C75      1.0000 0.77262  0.73293  0.24191  Biso   1.000  C
  C76      1.0000 0.69854  0.25677  0.65331  Biso   1.000  C
  C77      1.0000 0.75696  0.19673  0.71485  Biso   1.000  C
  C78      1.0000 0.83917  0.17170  0.67925  Biso   1.000  C
  C79      1.0000 0.71703  0.17048  0.80345  Biso   1.000  C
  C80      1.0000 0.69534  0.25799  0.37465  Biso   1.000  C
  C81      1.0000 0.75417  0.20037  0.31904  Biso   1.000  C
  C82      1.0000 0.83759  0.17332  0.29319  Biso   1.000  C
  C83      1.0000 0.71948  0.17051  0.29138  Biso   1.000  C
  C84      1.0000 0.71757  0.67788  0.29359  Biso   1.000  C
  C85      1.0000 0.41859  0.25596  0.66015  Biso   1.000  C
  C86      1.0000 0.36107  0.19844  0.71264  Biso   1.000  C
  C87      1.0000 0.33372  0.17109  0.67694  Biso   1.000  C
  C88      1.0000 0.33250  0.16988  0.80466  Biso   1.000  C
  C89      1.0000 0.69352  0.53090  0.38269  Biso   1.000  C
  C90      1.0000 0.75557  0.59295  0.31894  Biso   1.000  C
  C91      1.0000 0.19453  0.03191  0.87535  Biso   1.000  C
  C92      1.0000 0.25206  0.08943  0.82286  Biso   1.000  C
  C93      1.0000 0.27941  0.11678  0.85856  Biso   1.000  C
  C94      1.0000 0.28062  0.11800  0.73084  Biso   1.000  C
  C95      1.0000 0.91960  0.75697  0.15281  Biso   1.000  C
  C96      1.0000 0.85755  0.69492  0.21657  Biso   1.000  C
  O27      1.0000 0.43890  0.45004  0.69947  Biso   1.000  O
  O28      1.0000 0.44101  0.58007  0.56863  Biso   1.000  O
  O29      1.0000 0.43750  0.44905  0.40130  Biso   1.000  O
  O30      1.0000 0.44042  0.57706  0.39727  Biso   1.000  O
  O31      1.0000 0.73978  0.44804  0.40009  Biso   1.000  O
  O32      1.0000 0.00046  0.01160  0.83603  Biso   1.000  O
  O33      1.0000 0.87043  0.00948  0.96687  Biso   1.000  O
  O34      1.0000 0.00145  0.01299  0.13420  Biso   1.000  O
  O35      1.0000 0.87344  0.01007  0.13823  Biso   1.000  O
  O36      1.0000 0.00246  0.71071  0.13541  Biso   1.000  O
  O37      1.0000 0.17423  0.83783  0.83603  Biso   1.000  O
  O38      1.0000 0.17211  0.70781  0.96687  Biso   1.000  O
  O39      1.0000 0.17562  0.83882  0.13420  Biso   1.000  O
  O40      1.0000 0.17270  0.71081  0.13823  Biso   1.000  O
  O41      1.0000 0.87334  0.83983  0.13541  Biso   1.000  O
  O42      1.0000 0.61266  0.27628  0.69947  Biso   1.000  O
  O43      1.0000 0.74269  0.27839  0.56863  Biso   1.000  O
  O44      1.0000 0.61167  0.27488  0.40130  Biso   1.000  O
  O45      1.0000 0.73968  0.27780  0.39727  Biso   1.000  O
  O46      1.0000 0.61066  0.57716  0.40009  Biso   1.000  O
  O47      1.0000 0.55817  0.39555  0.51664  Biso   1.000  O
  O48      1.0000 0.43990  0.27728  0.69876  Biso   1.000  O
  O49      1.0000 0.43760  0.27497  0.57668  Biso   1.000  O
  O50      1.0000 0.05495  0.89233  0.01886  Biso   1.000  O
  O51      1.0000 0.17322  0.01059  0.83674  Biso   1.000  O
