data_image0
_cell_length_a       18.3034
_cell_length_b       18.3034
_cell_length_c       18.3034
_cell_angle_alpha    60
_cell_angle_beta     60
_cell_angle_gamma    60

_symmetry_space_group_name_H-M    "P 1"
_symmetry_int_tables_number       1

loop_
  _symmetry_equiv_pos_as_xyz
  'x, y, z'

loop_
  _atom_site_label
  _atom_site_occupancy
  _atom_site_fract_x
  _atom_site_fract_y
  _atom_site_fract_z
  _atom_site_thermal_displace_type
  _atom_site_B_iso_or_equiv
  _atom_site_type_symbol
  C1       1.0000 0.29349  0.29350  0.29350  Biso   1.000  C
  C2       1.0000 0.29349  0.29350  0.11951  Biso   1.000  C
  C3       1.0000 0.29349  0.11951  0.29350  Biso   1.000  C
  C4       1.0000 0.11950  0.29350  0.29350  Biso   1.000  C
  C5       1.0000 0.70651  0.70650  0.70650  Biso   1.000  C
  C6       1.0000 0.70651  0.70650  0.88049  Biso   1.000  C
  C7       1.0000 0.88050  0.70650  0.70650  Biso   1.000  C
  C8       1.0000 0.70651  0.88049  0.70650  Biso   1.000  C
  C9       1.0000 0.45470  0.45470  0.15630  Biso   1.000  C
  C10      1.0000 0.45470  0.45470  0.93430  Biso   1.000  C
  C11      1.0000 0.15630  0.93430  0.45470  Biso   1.000  C
  C12      1.0000 0.93430  0.15630  0.45470  Biso   1.000  C
  C13      1.0000 0.45470  0.15630  0.93430  Biso   1.000  C
  C14      1.0000 0.45470  0.93430  0.15630  Biso   1.000  C
  C15      1.0000 0.15630  0.45470  0.45470  Biso   1.000  C
  C16      1.0000 0.93430  0.45470  0.45470  Biso   1.000  C
  C17      1.0000 0.45470  0.93430  0.45470  Biso   1.000  C
  C18      1.0000 0.45470  0.15630  0.45470  Biso   1.000  C
  C19      1.0000 0.15630  0.45470  0.93430  Biso   1.000  C
  C20      1.0000 0.93430  0.45470  0.15630  Biso   1.000  C
  C21      1.0000 0.54530  0.54530  0.84370  Biso   1.000  C
  C22      1.0000 0.54530  0.54530  0.06570  Biso   1.000  C
  C23      1.0000 0.06570  0.84370  0.54530  Biso   1.000  C
  C24      1.0000 0.84370  0.06570  0.54530  Biso   1.000  C
  C25      1.0000 0.84370  0.54530  0.06570  Biso   1.000  C
  C26      1.0000 0.06570  0.54530  0.84370  Biso   1.000  C
  C27      1.0000 0.54530  0.84370  0.54530  Biso   1.000  C
  C28      1.0000 0.54530  0.06570  0.54530  Biso   1.000  C
  C29      1.0000 0.06570  0.54530  0.54530  Biso   1.000  C
  C30      1.0000 0.84370  0.54530  0.54530  Biso   1.000  C
  C31      1.0000 0.54530  0.84370  0.06570  Biso   1.000  C
  C32      1.0000 0.54530  0.06570  0.84370  Biso   1.000  C
  C33      1.0000 0.47355  0.47355  0.09143  Biso   1.000  C
  C34      1.0000 0.47355  0.47355  0.96147  Biso   1.000  C
  C35      1.0000 0.09143  0.96147  0.47355  Biso   1.000  C
  C36      1.0000 0.96147  0.09143  0.47355  Biso   1.000  C
  C37      1.0000 0.47355  0.09143  0.96147  Biso   1.000  C
  C38      1.0000 0.47355  0.96147  0.09143  Biso   1.000  C
  C39      1.0000 0.09143  0.47355  0.47355  Biso   1.000  C
  C40      1.0000 0.96147  0.47355  0.47355  Biso   1.000  C
  C41      1.0000 0.47355  0.96147  0.47355  Biso   1.000  C
  C42      1.0000 0.47355  0.09143  0.47355  Biso   1.000  C
  C43      1.0000 0.09143  0.47355  0.96147  Biso   1.000  C
  C44      1.0000 0.96147  0.47355  0.09143  Biso   1.000  C
  C45      1.0000 0.52645  0.52645  0.90857  Biso   1.000  C
  C46      1.0000 0.52645  0.52645  0.03853  Biso   1.000  C
  C47      1.0000 0.03853  0.90857  0.52645  Biso   1.000  C
  C48      1.0000 0.90857  0.03853  0.52645  Biso   1.000  C
  C49      1.0000 0.90857  0.52645  0.03853  Biso   1.000  C
  C50      1.0000 0.03853  0.52645  0.90857  Biso   1.000  C
  C51      1.0000 0.52645  0.90857  0.52645  Biso   1.000  C
  C52      1.0000 0.52645  0.03853  0.52645  Biso   1.000  C
  C53      1.0000 0.03853  0.52645  0.52645  Biso   1.000  C
  C54      1.0000 0.90857  0.52645  0.52645  Biso   1.000  C
  C55      1.0000 0.52645  0.90857  0.03853  Biso   1.000  C
  C56      1.0000 0.52645  0.03853  0.90857  Biso   1.000  C
  C57      1.0000 0.38830  0.38830  0.11170  Biso   1.000  C
  C58      1.0000 0.44623  0.44623  0.05377  Biso   1.000  C
  C59      1.0000 0.11170  0.11170  0.38830  Biso   1.000  C
  C60      1.0000 0.05377  0.05377  0.44623  Biso   1.000  C
  C61      1.0000 0.38830  0.11170  0.11170  Biso   1.000  C
  C62      1.0000 0.44623  0.05377  0.05377  Biso   1.000  C
  C63      1.0000 0.11170  0.38830  0.38830  Biso   1.000  C
  C64      1.0000 0.05377  0.44623  0.44623  Biso   1.000  C
  C65      1.0000 0.38830  0.11170  0.38830  Biso   1.000  C
  C66      1.0000 0.44623  0.05377  0.44623  Biso   1.000  C
  C67      1.0000 0.11170  0.38830  0.11170  Biso   1.000  C
  C68      1.0000 0.05377  0.44623  0.05377  Biso   1.000  C
  C69      1.0000 0.61170  0.61170  0.88830  Biso   1.000  C
  C70      1.0000 0.55377  0.55377  0.94623  Biso   1.000  C
  C71      1.0000 0.88830  0.88830  0.61170  Biso   1.000  C
  C72      1.0000 0.94623  0.94623  0.55377  Biso   1.000  C
  C73      1.0000 0.88830  0.61170  0.88830  Biso   1.000  C
  C74      1.0000 0.94623  0.55377  0.94623  Biso   1.000  C
  C75      1.0000 0.61170  0.88830  0.61170  Biso   1.000  C
  C76      1.0000 0.55377  0.94623  0.55377  Biso   1.000  C
  C77      1.0000 0.88830  0.61170  0.61170  Biso   1.000  C
  C78      1.0000 0.94623  0.55377  0.55377  Biso   1.000  C
  C79      1.0000 0.61170  0.88830  0.88830  Biso   1.000  C
  C80      1.0000 0.55377  0.94623  0.94623  Biso   1.000  C
  C81      1.0000 0.36613  0.36613  0.19527  Biso   1.000  C
  C82      1.0000 0.36613  0.36613  0.07247  Biso   1.000  C
  C83      1.0000 0.19527  0.07247  0.36613  Biso   1.000  C
  C84      1.0000 0.07247  0.19527  0.36613  Biso   1.000  C
  C85      1.0000 0.36613  0.19527  0.07247  Biso   1.000  C
  C86      1.0000 0.36613  0.07247  0.19527  Biso   1.000  C
  C87      1.0000 0.19527  0.36613  0.36613  Biso   1.000  C
  C88      1.0000 0.07247  0.36613  0.36613  Biso   1.000  C
  C89      1.0000 0.36613  0.07247  0.36613  Biso   1.000  C
  C90      1.0000 0.36613  0.19527  0.36613  Biso   1.000  C
  C91      1.0000 0.19527  0.36613  0.07247  Biso   1.000  C
  C92      1.0000 0.07247  0.36613  0.19527  Biso   1.000  C
  C93      1.0000 0.63387  0.63387  0.80473  Biso   1.000  C
  C94      1.0000 0.63387  0.63387  0.92753  Biso   1.000  C
  C95      1.0000 0.92753  0.80473  0.63387  Biso   1.000  C
  C96      1.0000 0.80473  0.92753  0.63387  Biso   1.000  C
  C97      1.0000 0.80473  0.63387  0.92753  Biso   1.000  C
  C98      1.0000 0.92753  0.63387  0.80473  Biso   1.000  C
  C99      1.0000 0.63387  0.80473  0.63387  Biso   1.000  C
  C100     1.0000 0.63387  0.92753  0.63387  Biso   1.000  C
  C101     1.0000 0.92753  0.63387  0.63387  Biso   1.000  C
  C102     1.0000 0.80473  0.63387  0.63387  Biso   1.000  C
  C103     1.0000 0.63387  0.80473  0.92753  Biso   1.000  C
  C104     1.0000 0.63387  0.92753  0.80473  Biso   1.000  C
  C105     1.0000 0.25000  0.25000  0.25000  Biso   1.000  C
  C106     1.0000 0.75000  0.75000  0.75000  Biso   1.000  C
  O1       1.0000 0.00550  0.83860  0.13383  Biso   1.000  O
  O2       1.0000 0.00550  0.01236  0.13383  Biso   1.000  O
  O3       1.0000 0.83175  0.01236  0.13383  Biso   1.000  O
  O4       1.0000 0.00550  0.01236  0.96008  Biso   1.000  O
  O5       1.0000 0.41915  0.42531  0.54678  Biso   1.000  O
  O6       1.0000 0.41915  0.59906  0.54678  Biso   1.000  O
  O7       1.0000 0.59290  0.42531  0.54678  Biso   1.000  O
  O8       1.0000 0.41915  0.42531  0.72053  Biso   1.000  O
  O9       1.0000 0.86793  0.65311  0.29536  Biso   1.000  O
  O10      1.0000 0.16703  0.17389  0.99626  Biso   1.000  O
  O11      1.0000 0.64625  0.87479  0.29536  Biso   1.000  O
  O12      1.0000 0.16703  0.17389  0.77458  Biso   1.000  O
  O13      1.0000 0.64625  0.17389  0.99626  Biso   1.000  O
  O14      1.0000 0.16703  0.87479  0.29536  Biso   1.000  O
  O15      1.0000 0.86793  0.17389  0.77458  Biso   1.000  O
  O16      1.0000 0.16703  0.65311  0.29536  Biso   1.000  O
  O17      1.0000 0.16703  0.87479  0.77458  Biso   1.000  O
  O18      1.0000 0.86793  0.17389  0.29536  Biso   1.000  O
  O19      1.0000 0.16703  0.65311  0.99626  Biso   1.000  O
  O20      1.0000 0.64625  0.17389  0.29536  Biso   1.000  O
  O21      1.0000 0.55672  0.26377  0.38525  Biso   1.000  O
  O22      1.0000 0.25761  0.78456  0.68435  Biso   1.000  O
  O23      1.0000 0.77840  0.26377  0.38525  Biso   1.000  O
  O24      1.0000 0.25761  0.56288  0.90603  Biso   1.000  O
  O25      1.0000 0.77840  0.26377  0.68435  Biso   1.000  O
  O26      1.0000 0.25761  0.78456  0.38525  Biso   1.000  O
  O27      1.0000 0.55672  0.26377  0.90603  Biso   1.000  O
  O28      1.0000 0.25761  0.56288  0.38525  Biso   1.000  O
  O29      1.0000 0.25761  0.26377  0.90603  Biso   1.000  O
  O30      1.0000 0.55672  0.78456  0.38525  Biso   1.000  O
  O31      1.0000 0.25761  0.26377  0.68435  Biso   1.000  O
  O32      1.0000 0.77840  0.56288  0.38525  Biso   1.000  O
  O33      1.0000 0.80470  0.67967  0.31370  Biso   1.000  O
  O34      1.0000 0.18537  0.19223  0.93303  Biso   1.000  O
  O35      1.0000 0.67281  0.81155  0.31370  Biso   1.000  O
  O36      1.0000 0.18537  0.19223  0.80114  Biso   1.000  O
  O37      1.0000 0.67281  0.19223  0.93303  Biso   1.000  O
  O38      1.0000 0.18537  0.81155  0.31370  Biso   1.000  O
  O39      1.0000 0.80470  0.19223  0.80114  Biso   1.000  O
  O40      1.0000 0.18537  0.67967  0.31370  Biso   1.000  O
  O41      1.0000 0.18537  0.81155  0.80114  Biso   1.000  O
  O42      1.0000 0.80470  0.19223  0.31370  Biso   1.000  O
  O43      1.0000 0.18537  0.67967  0.93303  Biso   1.000  O
  O44      1.0000 0.67281  0.19223  0.31370  Biso   1.000  O
  O45      1.0000 0.61995  0.24544  0.36691  Biso   1.000  O
  O46      1.0000 0.23928  0.75800  0.74758  Biso   1.000  O
  O47      1.0000 0.75184  0.24544  0.36691  Biso   1.000  O
  O48      1.0000 0.23928  0.62611  0.87947  Biso   1.000  O
  O49      1.0000 0.75184  0.24544  0.74758  Biso   1.000  O
  O50      1.0000 0.23928  0.75800  0.36691  Biso   1.000  O
  O51      1.0000 0.61995  0.24544  0.87947  Biso   1.000  O
  O52      1.0000 0.23928  0.62611  0.36691  Biso   1.000  O
  O53      1.0000 0.23928  0.24544  0.87947  Biso   1.000  O
  O54      1.0000 0.61995  0.75800  0.36691  Biso   1.000  O
  O55      1.0000 0.23928  0.24544  0.74758  Biso   1.000  O
  O56      1.0000 0.75184  0.62611  0.36691  Biso   1.000  O
  O57      1.0000 0.82355  0.83041  0.22890  Biso   1.000  O
  O58      1.0000 0.76572  0.77258  0.28673  Biso   1.000  O
  O59      1.0000 0.10057  0.10743  0.95188  Biso   1.000  O
  O60      1.0000 0.15840  0.16526  0.89405  Biso   1.000  O
  O61      1.0000 0.82355  0.10743  0.95188  Biso   1.000  O
  O62      1.0000 0.76572  0.16526  0.89405  Biso   1.000  O
  O63      1.0000 0.10057  0.83041  0.22890  Biso   1.000  O
  O64      1.0000 0.15840  0.77258  0.28673  Biso   1.000  O
  O65      1.0000 0.10057  0.83041  0.95188  Biso   1.000  O
  O66      1.0000 0.15840  0.77258  0.89405  Biso   1.000  O
  O67      1.0000 0.82355  0.10743  0.22890  Biso   1.000  O
  O68      1.0000 0.76572  0.16526  0.28673  Biso   1.000  O
  O69      1.0000 0.60109  0.33024  0.45171  Biso   1.000  O
  O70      1.0000 0.65892  0.27241  0.39388  Biso   1.000  O
  O71      1.0000 0.32408  0.60725  0.72873  Biso   1.000  O
  O72      1.0000 0.26625  0.66508  0.78656  Biso   1.000  O
  O73      1.0000 0.60109  0.33024  0.72873  Biso   1.000  O
  O74      1.0000 0.65892  0.27241  0.78656  Biso   1.000  O
  O75      1.0000 0.32408  0.60725  0.45171  Biso   1.000  O
  O76      1.0000 0.26625  0.66508  0.39388  Biso   1.000  O
  O77      1.0000 0.32408  0.33024  0.72873  Biso   1.000  O
  O78      1.0000 0.26625  0.27241  0.78656  Biso   1.000  O
  O79      1.0000 0.60109  0.60725  0.45171  Biso   1.000  O
  O80      1.0000 0.65892  0.66508  0.39388  Biso   1.000  O
  O81      1.0000 0.96206  0.96892  0.09039  Biso   1.000  O
  O82      1.0000 0.46259  0.46875  0.59022  Biso   1.000  O
  O83      1.0000 0.90714  0.79120  0.20671  Biso   1.000  O
  O84      1.0000 0.07838  0.08524  0.03547  Biso   1.000  O
  O85      1.0000 0.78434  0.91400  0.20671  Biso   1.000  O
  O86      1.0000 0.07838  0.08524  0.91267  Biso   1.000  O
  O87      1.0000 0.78434  0.08524  0.03547  Biso   1.000  O
  O88      1.0000 0.07838  0.91400  0.20671  Biso   1.000  O
  O89      1.0000 0.90714  0.08524  0.91267  Biso   1.000  O
  O90      1.0000 0.07838  0.79120  0.20671  Biso   1.000  O
  O91      1.0000 0.07838  0.91400  0.91267  Biso   1.000  O
  O92      1.0000 0.90714  0.08524  0.20671  Biso   1.000  O
  O93      1.0000 0.07838  0.79120  0.03547  Biso   1.000  O
  O94      1.0000 0.78434  0.08524  0.20671  Biso   1.000  O
  O95      1.0000 0.51750  0.35242  0.47390  Biso   1.000  O
  O96      1.0000 0.34627  0.64647  0.64514  Biso   1.000  O
  O97      1.0000 0.64031  0.35242  0.47390  Biso   1.000  O
  O98      1.0000 0.34626  0.52366  0.76794  Biso   1.000  O
  O99      1.0000 0.64031  0.35242  0.64514  Biso   1.000  O
  O100     1.0000 0.34626  0.64647  0.47390  Biso   1.000  O
  O101     1.0000 0.51750  0.35242  0.76794  Biso   1.000  O
  O102     1.0000 0.34626  0.52366  0.47390  Biso   1.000  O
  O103     1.0000 0.34626  0.35242  0.76794  Biso   1.000  O
  O104     1.0000 0.51750  0.64647  0.47390  Biso   1.000  O
  O105     1.0000 0.34626  0.35242  0.64514  Biso   1.000  O
