data_image0
_cell_length_a       18.1507
_cell_length_b       18.1507
_cell_length_c       18.1507
_cell_angle_alpha    60
_cell_angle_beta     60
_cell_angle_gamma    60

_symmetry_space_group_name_H-M    "P 1"
_symmetry_int_tables_number       1

loop_
  _symmetry_equiv_pos_as_xyz
  'x, y, z'

loop_
  _atom_site_label
  _atom_site_occupancy
  _atom_site_fract_x
  _atom_site_fract_y
  _atom_site_fract_z
  _atom_site_thermal_displace_type
  _atom_site_B_iso_or_equiv
  _atom_site_type_symbol
  Zn1      1.0000 0.29350  0.29350  0.29350  Biso   1.000  Zn
  Zn2      1.0000 0.29350  0.29350  0.11950  Biso   1.000  Zn
  Zn3      1.0000 0.29350  0.11950  0.29350  Biso   1.000  Zn
  Zn4      1.0000 0.11950  0.29350  0.29350  Biso   1.000  Zn
  Zn5      1.0000 0.70650  0.70650  0.70650  Biso   1.000  Zn
  Zn6      1.0000 0.70650  0.70650  0.88050  Biso   1.000  Zn
  Zn7      1.0000 0.88050  0.70650  0.70650  Biso   1.000  Zn
  Zn8      1.0000 0.70650  0.88050  0.70650  Biso   1.000  Zn
  H1       1.0000 0.45480  0.45480  0.15700  Biso   1.000  H
  H2       1.0000 0.45480  0.45480  0.93340  Biso   1.000  H
  H3       1.0000 0.15700  0.93340  0.45480  Biso   1.000  H
  H4       1.0000 0.93340  0.15700  0.45480  Biso   1.000  H
  H5       1.0000 0.45480  0.15700  0.93340  Biso   1.000  H
  H6       1.0000 0.45480  0.93340  0.15700  Biso   1.000  H
  H7       1.0000 0.15700  0.45480  0.45480  Biso   1.000  H
  H8       1.0000 0.93340  0.45480  0.45480  Biso   1.000  H
  H9       1.0000 0.45480  0.93340  0.45480  Biso   1.000  H
  H10      1.0000 0.45480  0.15700  0.45480  Biso   1.000  H
  H11      1.0000 0.15700  0.45480  0.93340  Biso   1.000  H
  H12      1.0000 0.93340  0.45480  0.15700  Biso   1.000  H
  H13      1.0000 0.54520  0.54520  0.84300  Biso   1.000  H
  H14      1.0000 0.54520  0.54520  0.06660  Biso   1.000  H
  H15      1.0000 0.06660  0.84300  0.54520  Biso   1.000  H
  H16      1.0000 0.84300  0.06660  0.54520  Biso   1.000  H
  H17      1.0000 0.84300  0.54520  0.06660  Biso   1.000  H
  H18      1.0000 0.06660  0.54520  0.84300  Biso   1.000  H
  H19      1.0000 0.54520  0.84300  0.54520  Biso   1.000  H
  H20      1.0000 0.54520  0.06660  0.54520  Biso   1.000  H
  H21      1.0000 0.06660  0.54520  0.54520  Biso   1.000  H
  H22      1.0000 0.84300  0.54520  0.54520  Biso   1.000  H
  H23      1.0000 0.54520  0.84300  0.06660  Biso   1.000  H
  H24      1.0000 0.54520  0.06660  0.84300  Biso   1.000  H
  C1       1.0000 0.47370  0.47370  0.09250  Biso   1.000  C
  C2       1.0000 0.47370  0.47370  0.96010  Biso   1.000  C
  C3       1.0000 0.09250  0.96010  0.47370  Biso   1.000  C
  C4       1.0000 0.96010  0.09250  0.47370  Biso   1.000  C
  C5       1.0000 0.47370  0.09250  0.96010  Biso   1.000  C
  C6       1.0000 0.47370  0.96010  0.09250  Biso   1.000  C
  C7       1.0000 0.09250  0.47370  0.47370  Biso   1.000  C
  C8       1.0000 0.96010  0.47370  0.47370  Biso   1.000  C
  C9       1.0000 0.47370  0.96010  0.47370  Biso   1.000  C
  C10      1.0000 0.47370  0.09250  0.47370  Biso   1.000  C
  C11      1.0000 0.09250  0.47370  0.96010  Biso   1.000  C
  C12      1.0000 0.96010  0.47370  0.09250  Biso   1.000  C
  C13      1.0000 0.52630  0.52630  0.90750  Biso   1.000  C
  C14      1.0000 0.52630  0.52630  0.03990  Biso   1.000  C
  C15      1.0000 0.03990  0.90750  0.52630  Biso   1.000  C
  C16      1.0000 0.90750  0.03990  0.52630  Biso   1.000  C
  C17      1.0000 0.90750  0.52630  0.03990  Biso   1.000  C
  C18      1.0000 0.03990  0.52630  0.90750  Biso   1.000  C
  C19      1.0000 0.52630  0.90750  0.52630  Biso   1.000  C
  C20      1.0000 0.52630  0.03990  0.52630  Biso   1.000  C
  C21      1.0000 0.03990  0.52630  0.52630  Biso   1.000  C
  C22      1.0000 0.90750  0.52630  0.52630  Biso   1.000  C
  C23      1.0000 0.52630  0.90750  0.03990  Biso   1.000  C
  C24      1.0000 0.52630  0.03990  0.90750  Biso   1.000  C
  C25      1.0000 0.38950  0.38950  0.11050  Biso   1.000  C
  C26      1.0000 0.44620  0.44620  0.05380  Biso   1.000  C
  C27      1.0000 0.11050  0.11050  0.38950  Biso   1.000  C
  C28      1.0000 0.05380  0.05380  0.44620  Biso   1.000  C
  C29      1.0000 0.38950  0.11050  0.11050  Biso   1.000  C
  C30      1.0000 0.44620  0.05380  0.05380  Biso   1.000  C
  C31      1.0000 0.11050  0.38950  0.38950  Biso   1.000  C
  C32      1.0000 0.05380  0.44620  0.44620  Biso   1.000  C
  C33      1.0000 0.38950  0.11050  0.38950  Biso   1.000  C
  C34      1.0000 0.44620  0.05380  0.44620  Biso   1.000  C
  C35      1.0000 0.11050  0.38950  0.11050  Biso   1.000  C
  C36      1.0000 0.05380  0.44620  0.05380  Biso   1.000  C
  C37      1.0000 0.61050  0.61050  0.88950  Biso   1.000  C
  C38      1.0000 0.55380  0.55380  0.94620  Biso   1.000  C
  C39      1.0000 0.88950  0.88950  0.61050  Biso   1.000  C
  C40      1.0000 0.94620  0.94620  0.55380  Biso   1.000  C
  C41      1.0000 0.88950  0.61050  0.88950  Biso   1.000  C
  C42      1.0000 0.94620  0.55380  0.94620  Biso   1.000  C
  C43      1.0000 0.61050  0.88950  0.61050  Biso   1.000  C
  C44      1.0000 0.55380  0.94620  0.55380  Biso   1.000  C
  C45      1.0000 0.88950  0.61050  0.61050  Biso   1.000  C
  C46      1.0000 0.94620  0.55380  0.55380  Biso   1.000  C
  C47      1.0000 0.61050  0.88950  0.88950  Biso   1.000  C
  C48      1.0000 0.55380  0.94620  0.94620  Biso   1.000  C
  O1       1.0000 0.25000  0.25000  0.25000  Biso   1.000  O
  O2       1.0000 0.75000  0.75000  0.75000  Biso   1.000  O
  O3       1.0000 0.36610  0.36610  0.19750  Biso   1.000  O
  O4       1.0000 0.36610  0.36610  0.07030  Biso   1.000  O
  O5       1.0000 0.19750  0.07030  0.36610  Biso   1.000  O
  O6       1.0000 0.07030  0.19750  0.36610  Biso   1.000  O
  O7       1.0000 0.36610  0.19750  0.07030  Biso   1.000  O
  O8       1.0000 0.36610  0.07030  0.19750  Biso   1.000  O
  O9       1.0000 0.19750  0.36610  0.36610  Biso   1.000  O
  O10      1.0000 0.07030  0.36610  0.36610  Biso   1.000  O
  O11      1.0000 0.36610  0.07030  0.36610  Biso   1.000  O
  O12      1.0000 0.36610  0.19750  0.36610  Biso   1.000  O
  O13      1.0000 0.19750  0.36610  0.07030  Biso   1.000  O
  O14      1.0000 0.07030  0.36610  0.19750  Biso   1.000  O
  O15      1.0000 0.63390  0.63390  0.80250  Biso   1.000  O
  O16      1.0000 0.63390  0.63390  0.92970  Biso   1.000  O
  O17      1.0000 0.92970  0.80250  0.63390  Biso   1.000  O
  O18      1.0000 0.80250  0.92970  0.63390  Biso   1.000  O
  O19      1.0000 0.80250  0.63390  0.92970  Biso   1.000  O
  O20      1.0000 0.92970  0.63390  0.80250  Biso   1.000  O
  O21      1.0000 0.63390  0.80250  0.63390  Biso   1.000  O
  O22      1.0000 0.63390  0.92970  0.63390  Biso   1.000  O
  O23      1.0000 0.92970  0.63390  0.63390  Biso   1.000  O
  O24      1.0000 0.80250  0.63390  0.63390  Biso   1.000  O
  O25      1.0000 0.63390  0.80250  0.92970  Biso   1.000  O
  O26      1.0000 0.63390  0.92970  0.80250  Biso   1.000  O
  Zn9      1.0000 0.00000  0.00000  0.00000  Biso   1.000  Zn
  Zn10     1.0000 0.58587  0.58587  0.41129  Biso   1.000  Zn
  Zn11     1.0000 0.76059  0.41115  0.41129  Biso   1.000  Zn
  Zn12     1.0000 0.17472  0.82528  0.00000  Biso   1.000  Zn
  Zn13     1.0000 0.17480  0.00008  0.82508  Biso   1.000  Zn
  Zn14     1.0000 0.17454  0.99982  0.00013  Biso   1.000  Zn
  Zn15     1.0000 0.58579  0.41107  0.58621  Biso   1.000  Zn
  Zn16     1.0000 0.58605  0.41133  0.41116  Biso   1.000  Zn
  H25      1.0000 0.03602  0.15768  0.63808  Biso   1.000  H
  H26      1.0000 0.81193  0.15613  0.86277  Biso   1.000  H
  H27      1.0000 0.80992  0.86272  0.15528  Biso   1.000  H
  H28      1.0000 0.42819  0.54985  0.77321  Biso   1.000  H
  H29      1.0000 0.42974  0.77394  0.54852  Biso   1.000  H
  H30      1.0000 0.72315  0.77595  0.25601  Biso   1.000  H
  H31      1.0000 0.72457  0.25347  0.77321  Biso   1.000  H
  H32      1.0000 0.94866  0.25502  0.54852  Biso   1.000  H
  H33      1.0000 0.95067  0.54843  0.25601  Biso   1.000  H
  H34      1.0000 0.33240  0.86130  0.63808  Biso   1.000  H
  H35      1.0000 0.33085  0.63721  0.86277  Biso   1.000  H
  H36      1.0000 0.03744  0.63520  0.15528  Biso   1.000  H
  C49      1.0000 0.00295  0.08872  0.82058  Biso   1.000  C
  C50      1.0000 0.93325  0.15364  0.76094  Biso   1.000  C
  C51      1.0000 0.97219  0.17922  0.66461  Biso   1.000  C
  C52      1.0000 0.83916  0.17777  0.79914  Biso   1.000  C
  C53      1.0000 0.99935  0.08810  0.08796  Biso   1.000  C
  C54      1.0000 0.83614  0.79919  0.17912  Biso   1.000  C
  C55      1.0000 0.49715  0.58292  0.59071  Biso   1.000  C
  C56      1.0000 0.43223  0.65262  0.65035  Biso   1.000  C
  C57      1.0000 0.40665  0.61368  0.74668  Biso   1.000  C
  C58      1.0000 0.40810  0.74671  0.61215  Biso   1.000  C
  C59      1.0000 0.49776  0.58652  0.32333  Biso   1.000  C
  C60      1.0000 0.78668  0.74972  0.23218  Biso   1.000  C
  C61      1.0000 0.75764  0.32243  0.59071  Biso   1.000  C
  C62      1.0000 0.82734  0.25751  0.65035  Biso   1.000  C
  C63      1.0000 0.78840  0.23193  0.74668  Biso   1.000  C
  C64      1.0000 0.92143  0.23338  0.61215  Biso   1.000  C
  C65      1.0000 0.76124  0.32305  0.32333  Biso   1.000  C
  C66      1.0000 0.92444  0.61196  0.23218  Biso   1.000  C
  C67      1.0000 0.26344  0.82823  0.82058  Biso   1.000  C
  C68      1.0000 0.32836  0.75853  0.76094  Biso   1.000  C
  C69      1.0000 0.35394  0.79747  0.66461  Biso   1.000  C
  C70      1.0000 0.35249  0.66444  0.79914  Biso   1.000  C
  C71      1.0000 0.26282  0.82463  0.08796  Biso   1.000  C
  C72      1.0000 0.97391  0.66142  0.17912  Biso   1.000  C
  C73      1.0000 0.26374  0.08902  0.82068  Biso   1.000  C
  C74      1.0000 0.99825  0.82353  0.08707  Biso   1.000  C
  C75      1.0000 0.93303  0.75830  0.15628  Biso   1.000  C
  C76      1.0000 0.49685  0.32213  0.59061  Biso   1.000  C
  C77      1.0000 0.76234  0.58762  0.32423  Biso   1.000  C
  C78      1.0000 0.82756  0.65284  0.25501  Biso   1.000  C
  O27      1.0000 0.08094  0.07236  0.77650  Biso   1.000  O
  O28      1.0000 0.95089  0.07315  0.90376  Biso   1.000  O
  O29      1.0000 0.08072  0.07255  0.07161  Biso   1.000  O
  O30      1.0000 0.94948  0.07275  0.07171  Biso   1.000  O
  O31      1.0000 0.94978  0.90551  0.07330  Biso   1.000  O
  O32      1.0000 0.51350  0.50493  0.63479  Biso   1.000  O
  O33      1.0000 0.51271  0.63498  0.50753  Biso   1.000  O
  O34      1.0000 0.51332  0.50515  0.33969  Biso   1.000  O
  O35      1.0000 0.51312  0.63639  0.33959  Biso   1.000  O
  O36      1.0000 0.68036  0.63609  0.33799  Biso   1.000  O
  O37      1.0000 0.67965  0.33879  0.63479  Biso   1.000  O
  O38      1.0000 0.80970  0.33799  0.50753  Biso   1.000  O
  O39      1.0000 0.67986  0.33860  0.33969  Biso   1.000  O
  O40      1.0000 0.81110  0.33840  0.33959  Biso   1.000  O
  O41      1.0000 0.81080  0.50564  0.33799  Biso   1.000  O
  O42      1.0000 0.24708  0.90622  0.77650  Biso   1.000  O
  O43      1.0000 0.24788  0.77617  0.90376  Biso   1.000  O
  O44      1.0000 0.24727  0.90600  0.07161  Biso   1.000  O
  O45      1.0000 0.24747  0.77476  0.07171  Biso   1.000  O
  O46      1.0000 0.08023  0.77506  0.07330  Biso   1.000  O
  O47      1.0000 0.12970  0.95498  0.95751  Biso   1.000  O
  O48      1.0000 0.24698  0.07226  0.77501  Biso   1.000  O
  O49      1.0000 0.24688  0.07216  0.90555  Biso   1.000  O
  O50      1.0000 0.63089  0.45617  0.45378  Biso   1.000  O
  O51      1.0000 0.51360  0.33889  0.63629  Biso   1.000  O
