data_image0
_cell_length_a       18.1507
_cell_length_b       18.1507
_cell_length_c       18.1507
_cell_angle_alpha    60
_cell_angle_beta     60
_cell_angle_gamma    60

_symmetry_space_group_name_H-M    "P 1"
_symmetry_int_tables_number       1

loop_
  _symmetry_equiv_pos_as_xyz
  'x, y, z'

loop_
  _atom_site_label
  _atom_site_occupancy
  _atom_site_fract_x
  _atom_site_fract_y
  _atom_site_fract_z
  _atom_site_thermal_displace_type
  _atom_site_B_iso_or_equiv
  _atom_site_type_symbol
  Zn1      1.0000 0.29350  0.29350  0.29350  Biso   1.000  Zn
  Zn2      1.0000 0.29350  0.29350  0.11950  Biso   1.000  Zn
  Zn3      1.0000 0.29350  0.11950  0.29350  Biso   1.000  Zn
  Zn4      1.0000 0.11950  0.29350  0.29350  Biso   1.000  Zn
  Zn5      1.0000 0.70650  0.70650  0.70650  Biso   1.000  Zn
  Zn6      1.0000 0.70650  0.70650  0.88050  Biso   1.000  Zn
  Zn7      1.0000 0.88050  0.70650  0.70650  Biso   1.000  Zn
  Zn8      1.0000 0.70650  0.88050  0.70650  Biso   1.000  Zn
  H1       1.0000 0.45480  0.45480  0.15700  Biso   1.000  H
  H2       1.0000 0.45480  0.45480  0.93340  Biso   1.000  H
  H3       1.0000 0.15700  0.93340  0.45480  Biso   1.000  H
  H4       1.0000 0.93340  0.15700  0.45480  Biso   1.000  H
  H5       1.0000 0.45480  0.15700  0.93340  Biso   1.000  H
  H6       1.0000 0.45480  0.93340  0.15700  Biso   1.000  H
  H7       1.0000 0.15700  0.45480  0.45480  Biso   1.000  H
  H8       1.0000 0.93340  0.45480  0.45480  Biso   1.000  H
  H9       1.0000 0.45480  0.93340  0.45480  Biso   1.000  H
  H10      1.0000 0.45480  0.15700  0.45480  Biso   1.000  H
  H11      1.0000 0.15700  0.45480  0.93340  Biso   1.000  H
  H12      1.0000 0.93340  0.45480  0.15700  Biso   1.000  H
  H13      1.0000 0.54520  0.54520  0.84300  Biso   1.000  H
  H14      1.0000 0.54520  0.54520  0.06660  Biso   1.000  H
  H15      1.0000 0.06660  0.84300  0.54520  Biso   1.000  H
  H16      1.0000 0.84300  0.06660  0.54520  Biso   1.000  H
  H17      1.0000 0.84300  0.54520  0.06660  Biso   1.000  H
  H18      1.0000 0.06660  0.54520  0.84300  Biso   1.000  H
  H19      1.0000 0.54520  0.84300  0.54520  Biso   1.000  H
  H20      1.0000 0.54520  0.06660  0.54520  Biso   1.000  H
  H21      1.0000 0.06660  0.54520  0.54520  Biso   1.000  H
  H22      1.0000 0.84300  0.54520  0.54520  Biso   1.000  H
  H23      1.0000 0.54520  0.84300  0.06660  Biso   1.000  H
  H24      1.0000 0.54520  0.06660  0.84300  Biso   1.000  H
  C1       1.0000 0.47370  0.47370  0.09250  Biso   1.000  C
  C2       1.0000 0.47370  0.47370  0.96010  Biso   1.000  C
  C3       1.0000 0.09250  0.96010  0.47370  Biso   1.000  C
  C4       1.0000 0.96010  0.09250  0.47370  Biso   1.000  C
  C5       1.0000 0.47370  0.09250  0.96010  Biso   1.000  C
  C6       1.0000 0.47370  0.96010  0.09250  Biso   1.000  C
  C7       1.0000 0.09250  0.47370  0.47370  Biso   1.000  C
  C8       1.0000 0.96010  0.47370  0.47370  Biso   1.000  C
  C9       1.0000 0.47370  0.96010  0.47370  Biso   1.000  C
  C10      1.0000 0.47370  0.09250  0.47370  Biso   1.000  C
  C11      1.0000 0.09250  0.47370  0.96010  Biso   1.000  C
  C12      1.0000 0.96010  0.47370  0.09250  Biso   1.000  C
  C13      1.0000 0.52630  0.52630  0.90750  Biso   1.000  C
  C14      1.0000 0.52630  0.52630  0.03990  Biso   1.000  C
  C15      1.0000 0.03990  0.90750  0.52630  Biso   1.000  C
  C16      1.0000 0.90750  0.03990  0.52630  Biso   1.000  C
  C17      1.0000 0.90750  0.52630  0.03990  Biso   1.000  C
  C18      1.0000 0.03990  0.52630  0.90750  Biso   1.000  C
  C19      1.0000 0.52630  0.90750  0.52630  Biso   1.000  C
  C20      1.0000 0.52630  0.03990  0.52630  Biso   1.000  C
  C21      1.0000 0.03990  0.52630  0.52630  Biso   1.000  C
  C22      1.0000 0.90750  0.52630  0.52630  Biso   1.000  C
  C23      1.0000 0.52630  0.90750  0.03990  Biso   1.000  C
  C24      1.0000 0.52630  0.03990  0.90750  Biso   1.000  C
  C25      1.0000 0.38950  0.38950  0.11050  Biso   1.000  C
  C26      1.0000 0.44620  0.44620  0.05380  Biso   1.000  C
  C27      1.0000 0.11050  0.11050  0.38950  Biso   1.000  C
  C28      1.0000 0.05380  0.05380  0.44620  Biso   1.000  C
  C29      1.0000 0.38950  0.11050  0.11050  Biso   1.000  C
  C30      1.0000 0.44620  0.05380  0.05380  Biso   1.000  C
  C31      1.0000 0.11050  0.38950  0.38950  Biso   1.000  C
  C32      1.0000 0.05380  0.44620  0.44620  Biso   1.000  C
  C33      1.0000 0.38950  0.11050  0.38950  Biso   1.000  C
  C34      1.0000 0.44620  0.05380  0.44620  Biso   1.000  C
  C35      1.0000 0.11050  0.38950  0.11050  Biso   1.000  C
  C36      1.0000 0.05380  0.44620  0.05380  Biso   1.000  C
  C37      1.0000 0.61050  0.61050  0.88950  Biso   1.000  C
  C38      1.0000 0.55380  0.55380  0.94620  Biso   1.000  C
  C39      1.0000 0.88950  0.88950  0.61050  Biso   1.000  C
  C40      1.0000 0.94620  0.94620  0.55380  Biso   1.000  C
  C41      1.0000 0.88950  0.61050  0.88950  Biso   1.000  C
  C42      1.0000 0.94620  0.55380  0.94620  Biso   1.000  C
  C43      1.0000 0.61050  0.88950  0.61050  Biso   1.000  C
  C44      1.0000 0.55380  0.94620  0.55380  Biso   1.000  C
  C45      1.0000 0.88950  0.61050  0.61050  Biso   1.000  C
  C46      1.0000 0.94620  0.55380  0.55380  Biso   1.000  C
  C47      1.0000 0.61050  0.88950  0.88950  Biso   1.000  C
  C48      1.0000 0.55380  0.94620  0.94620  Biso   1.000  C
  O1       1.0000 0.25000  0.25000  0.25000  Biso   1.000  O
  O2       1.0000 0.75000  0.75000  0.75000  Biso   1.000  O
  O3       1.0000 0.36610  0.36610  0.19750  Biso   1.000  O
  O4       1.0000 0.36610  0.36610  0.07030  Biso   1.000  O
  O5       1.0000 0.19750  0.07030  0.36610  Biso   1.000  O
  O6       1.0000 0.07030  0.19750  0.36610  Biso   1.000  O
  O7       1.0000 0.36610  0.19750  0.07030  Biso   1.000  O
  O8       1.0000 0.36610  0.07030  0.19750  Biso   1.000  O
  O9       1.0000 0.19750  0.36610  0.36610  Biso   1.000  O
  O10      1.0000 0.07030  0.36610  0.36610  Biso   1.000  O
  O11      1.0000 0.36610  0.07030  0.36610  Biso   1.000  O
  O12      1.0000 0.36610  0.19750  0.36610  Biso   1.000  O
  O13      1.0000 0.19750  0.36610  0.07030  Biso   1.000  O
  O14      1.0000 0.07030  0.36610  0.19750  Biso   1.000  O
  O15      1.0000 0.63390  0.63390  0.80250  Biso   1.000  O
  O16      1.0000 0.63390  0.63390  0.92970  Biso   1.000  O
  O17      1.0000 0.92970  0.80250  0.63390  Biso   1.000  O
  O18      1.0000 0.80250  0.92970  0.63390  Biso   1.000  O
  O19      1.0000 0.80250  0.63390  0.92970  Biso   1.000  O
  O20      1.0000 0.92970  0.63390  0.80250  Biso   1.000  O
  O21      1.0000 0.63390  0.80250  0.63390  Biso   1.000  O
  O22      1.0000 0.63390  0.92970  0.63390  Biso   1.000  O
  O23      1.0000 0.92970  0.63390  0.63390  Biso   1.000  O
  O24      1.0000 0.80250  0.63390  0.63390  Biso   1.000  O
  O25      1.0000 0.63390  0.80250  0.92970  Biso   1.000  O
  O26      1.0000 0.63390  0.92970  0.80250  Biso   1.000  O
  Zn9      1.0000 0.12754  0.89384  0.94467  Biso   1.000  Zn
  Zn10     1.0000 0.53683  0.30313  0.53536  Biso   1.000  Zn
  Zn11     1.0000 0.36150  0.47846  0.53536  Biso   1.000  Zn
  Zn12     1.0000 0.95220  0.06917  0.94467  Biso   1.000  Zn
  Zn13     1.0000 0.95200  0.89364  0.12014  Biso   1.000  Zn
  Zn14     1.0000 0.95213  0.89377  0.94446  Biso   1.000  Zn
  Zn15     1.0000 0.53703  0.47867  0.35989  Biso   1.000  Zn
  Zn16     1.0000 0.53690  0.47854  0.53557  Biso   1.000  Zn
  H25      1.0000 0.78858  0.24753  0.08686  Biso   1.000  H
  H26      1.0000 0.78544  0.03579  0.30196  Biso   1.000  H
  H27      1.0000 0.79221  0.24553  0.78265  Biso   1.000  H
  H28      1.0000 0.79170  0.03461  0.77732  Biso   1.000  H
  H29      1.0000 0.30500  0.03521  0.78446  Biso   1.000  H
  H30      1.0000 0.18314  0.64210  0.39317  Biso   1.000  H
  H31      1.0000 0.39488  0.64523  0.17807  Biso   1.000  H
  H32      1.0000 0.18514  0.63846  0.69738  Biso   1.000  H
  H33      1.0000 0.39606  0.63897  0.70271  Biso   1.000  H
  H34      1.0000 0.39545  0.12567  0.69557  Biso   1.000  H
  H35      1.0000 0.70046  0.12478  0.39317  Biso   1.000  H
  H36      1.0000 0.70360  0.33652  0.17807  Biso   1.000  H
  H37      1.0000 0.69682  0.12677  0.69738  Biso   1.000  H
  H38      1.0000 0.69733  0.33769  0.70271  Biso   1.000  H
  H39      1.0000 0.18403  0.33709  0.69557  Biso   1.000  H
  H40      1.0000 0.30589  0.73021  0.08686  Biso   1.000  H
  H41      1.0000 0.09415  0.72708  0.30196  Biso   1.000  H
  H42      1.0000 0.30390  0.73384  0.78265  Biso   1.000  H
  H43      1.0000 0.09298  0.73334  0.77732  Biso   1.000  H
  H44      1.0000 0.09358  0.24664  0.78446  Biso   1.000  H
  H45      1.0000 0.78988  0.73151  0.08615  Biso   1.000  H
  H46      1.0000 0.78715  0.72879  0.30588  Biso   1.000  H
  H47      1.0000 0.69916  0.64079  0.39388  Biso   1.000  H
  H48      1.0000 0.70189  0.64352  0.17415  Biso   1.000  H
  C49      1.0000 0.85694  0.07894  0.12578  Biso   1.000  C
  C50      1.0000 0.79781  0.13625  0.18652  Biso   1.000  C
  C51      1.0000 0.77158  0.22088  0.14951  Biso   1.000  C
  C52      1.0000 0.76975  0.09834  0.27622  Biso   1.000  C
  C53      1.0000 0.85736  0.07775  0.84762  Biso   1.000  C
  C54      1.0000 0.80115  0.13376  0.79040  Biso   1.000  C
  C55      1.0000 0.77321  0.21969  0.76505  Biso   1.000  C
  C56      1.0000 0.77280  0.09696  0.76163  Biso   1.000  C
  C57      1.0000 0.27856  0.09766  0.76485  Biso   1.000  C
  C58      1.0000 0.35173  0.57372  0.35426  Biso   1.000  C
  C59      1.0000 0.29442  0.63285  0.29352  Biso   1.000  C
  C60      1.0000 0.20979  0.65910  0.33052  Biso   1.000  C
  C61      1.0000 0.33233  0.66091  0.20381  Biso   1.000  C
  C62      1.0000 0.35293  0.57331  0.63241  Biso   1.000  C
  C63      1.0000 0.29691  0.62952  0.68964  Biso   1.000  C
  C64      1.0000 0.21098  0.65747  0.71498  Biso   1.000  C
  C65      1.0000 0.33371  0.65787  0.71840  Biso   1.000  C
  C66      1.0000 0.33300  0.15211  0.71518  Biso   1.000  C
  C67      1.0000 0.63209  0.29337  0.35426  Biso   1.000  C
  C68      1.0000 0.69122  0.23605  0.29352  Biso   1.000  C
  C69      1.0000 0.71746  0.15143  0.33052  Biso   1.000  C
  C70      1.0000 0.71928  0.27397  0.20381  Biso   1.000  C
  C71      1.0000 0.63167  0.29456  0.63241  Biso   1.000  C
  C72      1.0000 0.68788  0.23855  0.68964  Biso   1.000  C
  C73      1.0000 0.71583  0.15262  0.71498  Biso   1.000  C
  C74      1.0000 0.71624  0.27535  0.71840  Biso   1.000  C
  C75      1.0000 0.21048  0.27464  0.71518  Biso   1.000  C
  C76      1.0000 0.13730  0.79858  0.12578  Biso   1.000  C
  C77      1.0000 0.19462  0.73945  0.18652  Biso   1.000  C
  C78      1.0000 0.27924  0.71321  0.14951  Biso   1.000  C
  C79      1.0000 0.15670  0.71139  0.27622  Biso   1.000  C
  C80      1.0000 0.13611  0.79900  0.84762  Biso   1.000  C
  C81      1.0000 0.19212  0.74279  0.79040  Biso   1.000  C
  C82      1.0000 0.27806  0.71484  0.76505  Biso   1.000  C
  C83      1.0000 0.15532  0.71443  0.76163  Biso   1.000  C
  C84      1.0000 0.15603  0.22019  0.76485  Biso   1.000  C
  C85      1.0000 0.85524  0.79687  0.13241  Biso   1.000  C
  C86      1.0000 0.79882  0.74046  0.18571  Biso   1.000  C
  C87      1.0000 0.77208  0.71371  0.14850  Biso   1.000  C
  C88      1.0000 0.76965  0.71129  0.27823  Biso   1.000  C
  C89      1.0000 0.13319  0.07483  0.85285  Biso   1.000  C
  C90      1.0000 0.19373  0.13537  0.79050  Biso   1.000  C
  C91      1.0000 0.63380  0.57543  0.34762  Biso   1.000  C
  C92      1.0000 0.69021  0.63185  0.29432  Biso   1.000  C
  C93      1.0000 0.71696  0.65860  0.33153  Biso   1.000  C
  C94      1.0000 0.71938  0.66102  0.20180  Biso   1.000  C
  C95      1.0000 0.35584  0.29748  0.62719  Biso   1.000  C
  C96      1.0000 0.29531  0.23694  0.68953  Biso   1.000  C
  O27      1.0000 0.87715  0.99276  0.16952  Biso   1.000  O
  O28      1.0000 0.87957  0.11967  0.04261  Biso   1.000  O
  O29      1.0000 0.87687  0.99167  0.87306  Biso   1.000  O
  O30      1.0000 0.87908  0.11817  0.87024  Biso   1.000  O
  O31      1.0000 0.17583  0.99137  0.87256  Biso   1.000  O
  O32      1.0000 0.43791  0.55351  0.31051  Biso   1.000  O
  O33      1.0000 0.31100  0.55109  0.43742  Biso   1.000  O
  O34      1.0000 0.43900  0.55380  0.60697  Biso   1.000  O
  O35      1.0000 0.31250  0.55159  0.60979  Biso   1.000  O
  O36      1.0000 0.43931  0.25484  0.60748  Biso   1.000  O
  O37      1.0000 0.61188  0.37955  0.31051  Biso   1.000  O
  O38      1.0000 0.60946  0.25264  0.43742  Biso   1.000  O
  O39      1.0000 0.61217  0.38064  0.60697  Biso   1.000  O
  O40      1.0000 0.60995  0.25414  0.60979  Biso   1.000  O
  O41      1.0000 0.31321  0.38094  0.60748  Biso   1.000  O
  O42      1.0000 0.05112  0.81879  0.16952  Biso   1.000  O
  O43      1.0000 0.17803  0.82121  0.04261  Biso   1.000  O
  O44      1.0000 0.05003  0.81851  0.87306  Biso   1.000  O
  O45      1.0000 0.17653  0.82072  0.87024  Biso   1.000  O
  O46      1.0000 0.04973  0.11747  0.87256  Biso   1.000  O
  O47      1.0000 0.99582  0.93746  0.98881  Biso   1.000  O
  O48      1.0000 0.87856  0.82020  0.16851  Biso   1.000  O
  O49      1.0000 0.87696  0.81860  0.04734  Biso   1.000  O
  O50      1.0000 0.49321  0.43485  0.49122  Biso   1.000  O
  O51      1.0000 0.61047  0.55211  0.31152  Biso   1.000  O
