data_image0
_cell_length_a       18.283
_cell_length_b       18.283
_cell_length_c       18.283
_cell_angle_alpha    60
_cell_angle_beta     60
_cell_angle_gamma    60

_symmetry_space_group_name_H-M    "P 1"
_symmetry_int_tables_number       1

loop_
  _symmetry_equiv_pos_as_xyz
  'x, y, z'

loop_
  _atom_site_label
  _atom_site_occupancy
  _atom_site_fract_x
  _atom_site_fract_y
  _atom_site_fract_z
  _atom_site_thermal_displace_type
  _atom_site_B_iso_or_equiv
  _atom_site_type_symbol
  C1       1.0000 0.20670  0.37990  0.20670  Biso   1.000  C
  C2       1.0000 0.37990  0.20670  0.20670  Biso   1.000  C
  C3       1.0000 0.20670  0.20670  0.20670  Biso   1.000  C
  C4       1.0000 0.20670  0.20670  0.37990  Biso   1.000  C
  C5       1.0000 0.62010  0.79330  0.79330  Biso   1.000  C
  C6       1.0000 0.79330  0.62010  0.79330  Biso   1.000  C
  C7       1.0000 0.79330  0.79330  0.79330  Biso   1.000  C
  C8       1.0000 0.79330  0.79330  0.62010  Biso   1.000  C
  C9       1.0000 0.04940  0.56380  0.04940  Biso   1.000  C
  C10      1.0000 0.56380  0.04940  0.33740  Biso   1.000  C
  C11      1.0000 0.04940  0.33740  0.04940  Biso   1.000  C
  C12      1.0000 0.33740  0.04940  0.56380  Biso   1.000  C
  C13      1.0000 0.04940  0.04940  0.33740  Biso   1.000  C
  C14      1.0000 0.56380  0.33740  0.04940  Biso   1.000  C
  C15      1.0000 0.04940  0.04940  0.56380  Biso   1.000  C
  C16      1.0000 0.33740  0.56380  0.04940  Biso   1.000  C
  C17      1.0000 0.04940  0.33740  0.56380  Biso   1.000  C
  C18      1.0000 0.56380  0.04940  0.04940  Biso   1.000  C
  C19      1.0000 0.04940  0.56380  0.33740  Biso   1.000  C
  C20      1.0000 0.33740  0.04940  0.04940  Biso   1.000  C
  C21      1.0000 0.43620  0.95060  0.95060  Biso   1.000  C
  C22      1.0000 0.95060  0.43620  0.66260  Biso   1.000  C
  C23      1.0000 0.66260  0.95060  0.95060  Biso   1.000  C
  C24      1.0000 0.95060  0.66260  0.43620  Biso   1.000  C
  C25      1.0000 0.95060  0.95060  0.66260  Biso   1.000  C
  C26      1.0000 0.66260  0.43620  0.95060  Biso   1.000  C
  C27      1.0000 0.95060  0.95060  0.43620  Biso   1.000  C
  C28      1.0000 0.43620  0.66260  0.95060  Biso   1.000  C
  C29      1.0000 0.66260  0.95060  0.43620  Biso   1.000  C
  C30      1.0000 0.95060  0.43620  0.95060  Biso   1.000  C
  C31      1.0000 0.43620  0.95060  0.66260  Biso   1.000  C
  C32      1.0000 0.95060  0.66260  0.95060  Biso   1.000  C
  C33      1.0000 0.02700  0.53820  0.02700  Biso   1.000  C
  C34      1.0000 0.53820  0.02700  0.40780  Biso   1.000  C
  C35      1.0000 0.02700  0.40780  0.02700  Biso   1.000  C
  C36      1.0000 0.40780  0.02700  0.53820  Biso   1.000  C
  C37      1.0000 0.02700  0.02700  0.40780  Biso   1.000  C
  C38      1.0000 0.53820  0.40780  0.02700  Biso   1.000  C
  C39      1.0000 0.02700  0.02700  0.53820  Biso   1.000  C
  C40      1.0000 0.40780  0.53820  0.02700  Biso   1.000  C
  C41      1.0000 0.02700  0.40780  0.53820  Biso   1.000  C
  C42      1.0000 0.53820  0.02700  0.02700  Biso   1.000  C
  C43      1.0000 0.02700  0.53820  0.40780  Biso   1.000  C
  C44      1.0000 0.40780  0.02700  0.02700  Biso   1.000  C
  C45      1.0000 0.46180  0.97300  0.97300  Biso   1.000  C
  C46      1.0000 0.97300  0.46180  0.59220  Biso   1.000  C
  C47      1.0000 0.59220  0.97300  0.97300  Biso   1.000  C
  C48      1.0000 0.97300  0.59220  0.46180  Biso   1.000  C
  C49      1.0000 0.97300  0.97300  0.59220  Biso   1.000  C
  C50      1.0000 0.59220  0.46180  0.97300  Biso   1.000  C
  C51      1.0000 0.97300  0.97300  0.46180  Biso   1.000  C
  C52      1.0000 0.46180  0.59220  0.97300  Biso   1.000  C
  C53      1.0000 0.59220  0.97300  0.46180  Biso   1.000  C
  C54      1.0000 0.97300  0.46180  0.97300  Biso   1.000  C
  C55      1.0000 0.46180  0.97300  0.59220  Biso   1.000  C
  C56      1.0000 0.97300  0.59220  0.97300  Biso   1.000  C
  C57      1.0000 0.11070  0.38930  0.11070  Biso   1.000  C
  C58      1.0000 0.05420  0.44580  0.05420  Biso   1.000  C
  C59      1.0000 0.38930  0.11070  0.38930  Biso   1.000  C
  C60      1.0000 0.44580  0.05420  0.44580  Biso   1.000  C
  C61      1.0000 0.11070  0.11070  0.38930  Biso   1.000  C
  C62      1.0000 0.05420  0.05420  0.44580  Biso   1.000  C
  C63      1.0000 0.38930  0.38930  0.11070  Biso   1.000  C
  C64      1.0000 0.44580  0.44580  0.05420  Biso   1.000  C
  C65      1.0000 0.11070  0.38930  0.38930  Biso   1.000  C
  C66      1.0000 0.05420  0.44580  0.44580  Biso   1.000  C
  C67      1.0000 0.38930  0.11070  0.11070  Biso   1.000  C
  C68      1.0000 0.44580  0.05420  0.05420  Biso   1.000  C
  C69      1.0000 0.61070  0.88930  0.88930  Biso   1.000  C
  C70      1.0000 0.55420  0.94580  0.94580  Biso   1.000  C
  C71      1.0000 0.88930  0.61070  0.61070  Biso   1.000  C
  C72      1.0000 0.94580  0.55420  0.55420  Biso   1.000  C
  C73      1.0000 0.88930  0.88930  0.61070  Biso   1.000  C
  C74      1.0000 0.94580  0.94580  0.55420  Biso   1.000  C
  C75      1.0000 0.61070  0.61070  0.88930  Biso   1.000  C
  C76      1.0000 0.55420  0.55420  0.94580  Biso   1.000  C
  C77      1.0000 0.61070  0.88930  0.61070  Biso   1.000  C
  C78      1.0000 0.55420  0.94580  0.55420  Biso   1.000  C
  C79      1.0000 0.88930  0.61070  0.88930  Biso   1.000  C
  C80      1.0000 0.94580  0.55420  0.94580  Biso   1.000  C
  C81      1.0000 0.25000  0.25000  0.25000  Biso   1.000  C
  C82      1.0000 0.75000  0.75000  0.75000  Biso   1.000  C
  C83      1.0000 0.13430  0.42670  0.13430  Biso   1.000  C
  C84      1.0000 0.42670  0.13430  0.30470  Biso   1.000  C
  C85      1.0000 0.13430  0.30470  0.13430  Biso   1.000  C
  C86      1.0000 0.30470  0.13430  0.42670  Biso   1.000  C
  C87      1.0000 0.13430  0.13430  0.30470  Biso   1.000  C
  C88      1.0000 0.42670  0.30470  0.13430  Biso   1.000  C
  C89      1.0000 0.13430  0.13430  0.42670  Biso   1.000  C
  C90      1.0000 0.30470  0.42670  0.13430  Biso   1.000  C
  C91      1.0000 0.13430  0.30470  0.42670  Biso   1.000  C
  C92      1.0000 0.42670  0.13430  0.13430  Biso   1.000  C
  C93      1.0000 0.13430  0.42670  0.30470  Biso   1.000  C
  C94      1.0000 0.30470  0.13430  0.13430  Biso   1.000  C
  C95      1.0000 0.57330  0.86570  0.86570  Biso   1.000  C
  C96      1.0000 0.86570  0.57330  0.69530  Biso   1.000  C
  C97      1.0000 0.69530  0.86570  0.86570  Biso   1.000  C
  C98      1.0000 0.86570  0.69530  0.57330  Biso   1.000  C
  C99      1.0000 0.86570  0.86570  0.69530  Biso   1.000  C
  C100     1.0000 0.69530  0.57330  0.86570  Biso   1.000  C
  C101     1.0000 0.86570  0.86570  0.57330  Biso   1.000  C
  C102     1.0000 0.57330  0.69530  0.86570  Biso   1.000  C
  C103     1.0000 0.69530  0.86570  0.57330  Biso   1.000  C
  C104     1.0000 0.86570  0.57330  0.86570  Biso   1.000  C
  C105     1.0000 0.57330  0.86570  0.69530  Biso   1.000  C
  C106     1.0000 0.86570  0.69530  0.86570  Biso   1.000  C
  O1       1.0000 0.00550  0.83954  0.13398  Biso   1.000  O
  O2       1.0000 0.00550  0.01696  0.13398  Biso   1.000  O
  O3       1.0000 0.82809  0.01696  0.13398  Biso   1.000  O
  O4       1.0000 0.00550  0.01696  0.95656  Biso   1.000  O
  O5       1.0000 0.41863  0.42764  0.54466  Biso   1.000  O
  O6       1.0000 0.41863  0.60505  0.54466  Biso   1.000  O
  O7       1.0000 0.59605  0.42764  0.54466  Biso   1.000  O
  O8       1.0000 0.41863  0.42764  0.72207  Biso   1.000  O
  O9       1.0000 0.85902  0.66022  0.29688  Biso   1.000  O
  O10      1.0000 0.16840  0.17986  0.98750  Biso   1.000  O
  O11      1.0000 0.64877  0.87048  0.29688  Biso   1.000  O
  O12      1.0000 0.16840  0.17986  0.77724  Biso   1.000  O
  O13      1.0000 0.64877  0.17986  0.98750  Biso   1.000  O
  O14      1.0000 0.16840  0.87048  0.29688  Biso   1.000  O
  O15      1.0000 0.85902  0.17986  0.77724  Biso   1.000  O
  O16      1.0000 0.16840  0.66022  0.29688  Biso   1.000  O
  O17      1.0000 0.16840  0.87048  0.77724  Biso   1.000  O
  O18      1.0000 0.85902  0.17986  0.29688  Biso   1.000  O
  O19      1.0000 0.16840  0.66022  0.98750  Biso   1.000  O
  O20      1.0000 0.64877  0.17986  0.29688  Biso   1.000  O
  O21      1.0000 0.56511  0.26474  0.38176  Biso   1.000  O
  O22      1.0000 0.25573  0.78437  0.69113  Biso   1.000  O
  O23      1.0000 0.77537  0.26474  0.38176  Biso   1.000  O
  O24      1.0000 0.25573  0.57412  0.90139  Biso   1.000  O
  O25      1.0000 0.77537  0.26474  0.69113  Biso   1.000  O
  O26      1.0000 0.25573  0.78437  0.38176  Biso   1.000  O
  O27      1.0000 0.56511  0.26474  0.90139  Biso   1.000  O
  O28      1.0000 0.25573  0.57412  0.38176  Biso   1.000  O
  O29      1.0000 0.25573  0.26474  0.90139  Biso   1.000  O
  O30      1.0000 0.56511  0.78437  0.38176  Biso   1.000  O
  O31      1.0000 0.25573  0.26474  0.69113  Biso   1.000  O
  O32      1.0000 0.77537  0.57412  0.38176  Biso   1.000  O
  O33      1.0000 0.80656  0.68305  0.31169  Biso   1.000  O
  O34      1.0000 0.18322  0.19467  0.93503  Biso   1.000  O
  O35      1.0000 0.67159  0.81801  0.31169  Biso   1.000  O
  O36      1.0000 0.18322  0.19467  0.80007  Biso   1.000  O
  O37      1.0000 0.67159  0.19467  0.93503  Biso   1.000  O
  O38      1.0000 0.18322  0.81801  0.31169  Biso   1.000  O
  O39      1.0000 0.80656  0.19467  0.80007  Biso   1.000  O
  O40      1.0000 0.18322  0.68305  0.31169  Biso   1.000  O
  O41      1.0000 0.18322  0.81801  0.80007  Biso   1.000  O
  O42      1.0000 0.80656  0.19467  0.31169  Biso   1.000  O
  O43      1.0000 0.18322  0.68305  0.93503  Biso   1.000  O
  O44      1.0000 0.67159  0.19467  0.31169  Biso   1.000  O
  O45      1.0000 0.61758  0.24992  0.36694  Biso   1.000  O
  O46      1.0000 0.24091  0.76154  0.74360  Biso   1.000  O
  O47      1.0000 0.75254  0.24992  0.36694  Biso   1.000  O
  O48      1.0000 0.24091  0.62658  0.87856  Biso   1.000  O
  O49      1.0000 0.75254  0.24992  0.74360  Biso   1.000  O
  O50      1.0000 0.24091  0.76154  0.36694  Biso   1.000  O
  O51      1.0000 0.61758  0.24992  0.87856  Biso   1.000  O
  O52      1.0000 0.24091  0.62658  0.36694  Biso   1.000  O
  O53      1.0000 0.24091  0.24992  0.87856  Biso   1.000  O
  O54      1.0000 0.61758  0.76154  0.36694  Biso   1.000  O
  O55      1.0000 0.24091  0.24992  0.74360  Biso   1.000  O
  O56      1.0000 0.75254  0.62658  0.36694  Biso   1.000  O
  O57      1.0000 0.82558  0.83704  0.22519  Biso   1.000  O
  O58      1.0000 0.76501  0.77646  0.28576  Biso   1.000  O
  O59      1.0000 0.09671  0.10817  0.95406  Biso   1.000  O
  O60      1.0000 0.15729  0.16874  0.89348  Biso   1.000  O
  O61      1.0000 0.82558  0.10817  0.95406  Biso   1.000  O
  O62      1.0000 0.76501  0.16874  0.89348  Biso   1.000  O
  O63      1.0000 0.09671  0.83704  0.22519  Biso   1.000  O
  O64      1.0000 0.15729  0.77646  0.28576  Biso   1.000  O
  O65      1.0000 0.09671  0.83704  0.95406  Biso   1.000  O
  O66      1.0000 0.15729  0.77646  0.89348  Biso   1.000  O
  O67      1.0000 0.82558  0.10817  0.22519  Biso   1.000  O
  O68      1.0000 0.76501  0.16874  0.28576  Biso   1.000  O
  O69      1.0000 0.59855  0.33642  0.45344  Biso   1.000  O
  O70      1.0000 0.65913  0.27585  0.39287  Biso   1.000  O
  O71      1.0000 0.32742  0.60756  0.72458  Biso   1.000  O
  O72      1.0000 0.26685  0.66813  0.78515  Biso   1.000  O
  O73      1.0000 0.59855  0.33642  0.72458  Biso   1.000  O
  O74      1.0000 0.65913  0.27585  0.78515  Biso   1.000  O
  O75      1.0000 0.32742  0.60756  0.45344  Biso   1.000  O
  O76      1.0000 0.26685  0.66813  0.39287  Biso   1.000  O
  O77      1.0000 0.32742  0.33642  0.72458  Biso   1.000  O
  O78      1.0000 0.26685  0.27585  0.78515  Biso   1.000  O
  O79      1.0000 0.59855  0.60756  0.45344  Biso   1.000  O
  O80      1.0000 0.65913  0.66813  0.39287  Biso   1.000  O
  O81      1.0000 0.96115  0.97260  0.08962  Biso   1.000  O
  O82      1.0000 0.46299  0.47199  0.58901  Biso   1.000  O
  O83      1.0000 0.90748  0.79318  0.20616  Biso   1.000  O
  O84      1.0000 0.07769  0.08915  0.03596  Biso   1.000  O
  O85      1.0000 0.78173  0.91894  0.20616  Biso   1.000  O
  O86      1.0000 0.07769  0.08915  0.91020  Biso   1.000  O
  O87      1.0000 0.78173  0.08915  0.03596  Biso   1.000  O
  O88      1.0000 0.07769  0.91894  0.20616  Biso   1.000  O
  O89      1.0000 0.90748  0.08915  0.91020  Biso   1.000  O
  O90      1.0000 0.07769  0.79318  0.20616  Biso   1.000  O
  O91      1.0000 0.07769  0.91894  0.91020  Biso   1.000  O
  O92      1.0000 0.90748  0.08915  0.20616  Biso   1.000  O
  O93      1.0000 0.07769  0.79318  0.03596  Biso   1.000  O
  O94      1.0000 0.78173  0.08915  0.20616  Biso   1.000  O
  O95      1.0000 0.51665  0.35545  0.47247  Biso   1.000  O
  O96      1.0000 0.34644  0.65141  0.64268  Biso   1.000  O
  O97      1.0000 0.64241  0.35545  0.47247  Biso   1.000  O
  O98      1.0000 0.34644  0.52566  0.76843  Biso   1.000  O
  O99      1.0000 0.64241  0.35545  0.64268  Biso   1.000  O
  O100     1.0000 0.34644  0.65141  0.47247  Biso   1.000  O
  O101     1.0000 0.51665  0.35545  0.76843  Biso   1.000  O
  O102     1.0000 0.34644  0.52566  0.47247  Biso   1.000  O
  O103     1.0000 0.34644  0.35545  0.76843  Biso   1.000  O
  O104     1.0000 0.51665  0.65141  0.47247  Biso   1.000  O
  O105     1.0000 0.34644  0.35545  0.64268  Biso   1.000  O
