data_image0
_cell_length_a       18.3054
_cell_length_b       18.3054
_cell_length_c       18.3054
_cell_angle_alpha    60
_cell_angle_beta     60
_cell_angle_gamma    60

_symmetry_space_group_name_H-M    "P 1"
_symmetry_int_tables_number       1

loop_
  _symmetry_equiv_pos_as_xyz
  'x, y, z'

loop_
  _atom_site_label
  _atom_site_occupancy
  _atom_site_fract_x
  _atom_site_fract_y
  _atom_site_fract_z
  _atom_site_thermal_displace_type
  _atom_site_B_iso_or_equiv
  _atom_site_type_symbol
  Zn1      1.0000 0.20570  0.38290  0.20570  Biso   1.000  Zn
  Zn2      1.0000 0.38290  0.20570  0.20570  Biso   1.000  Zn
  Zn3      1.0000 0.20570  0.20570  0.20570  Biso   1.000  Zn
  Zn4      1.0000 0.20570  0.20570  0.38290  Biso   1.000  Zn
  Zn5      1.0000 0.61710  0.79430  0.79430  Biso   1.000  Zn
  Zn6      1.0000 0.79430  0.61710  0.79430  Biso   1.000  Zn
  Zn7      1.0000 0.79430  0.79430  0.79430  Biso   1.000  Zn
  Zn8      1.0000 0.79430  0.79430  0.61710  Biso   1.000  Zn
  H1       1.0000 0.04300  0.56200  0.04300  Biso   1.000  H
  H2       1.0000 0.56200  0.04300  0.35200  Biso   1.000  H
  H3       1.0000 0.04300  0.35200  0.04300  Biso   1.000  H
  H4       1.0000 0.35200  0.04300  0.56200  Biso   1.000  H
  H5       1.0000 0.04300  0.04300  0.35200  Biso   1.000  H
  H6       1.0000 0.56200  0.35200  0.04300  Biso   1.000  H
  H7       1.0000 0.04300  0.04300  0.56200  Biso   1.000  H
  H8       1.0000 0.35200  0.56200  0.04300  Biso   1.000  H
  H9       1.0000 0.04300  0.35200  0.56200  Biso   1.000  H
  H10      1.0000 0.56200  0.04300  0.04300  Biso   1.000  H
  H11      1.0000 0.04300  0.56200  0.35200  Biso   1.000  H
  H12      1.0000 0.35200  0.04300  0.04300  Biso   1.000  H
  H13      1.0000 0.43800  0.95700  0.95700  Biso   1.000  H
  H14      1.0000 0.95700  0.43800  0.64800  Biso   1.000  H
  H15      1.0000 0.64800  0.95700  0.95700  Biso   1.000  H
  H16      1.0000 0.95700  0.64800  0.43800  Biso   1.000  H
  H17      1.0000 0.95700  0.95700  0.64800  Biso   1.000  H
  H18      1.0000 0.64800  0.43800  0.95700  Biso   1.000  H
  H19      1.0000 0.95700  0.95700  0.43800  Biso   1.000  H
  H20      1.0000 0.43800  0.64800  0.95700  Biso   1.000  H
  H21      1.0000 0.64800  0.95700  0.43800  Biso   1.000  H
  H22      1.0000 0.95700  0.43800  0.95700  Biso   1.000  H
  H23      1.0000 0.43800  0.95700  0.64800  Biso   1.000  H
  H24      1.0000 0.95700  0.64800  0.95700  Biso   1.000  H
  C1       1.0000 0.02820  0.53920  0.02820  Biso   1.000  C
  C2       1.0000 0.53920  0.02820  0.40440  Biso   1.000  C
  C3       1.0000 0.02820  0.40440  0.02820  Biso   1.000  C
  C4       1.0000 0.40440  0.02820  0.53920  Biso   1.000  C
  C5       1.0000 0.02820  0.02820  0.40440  Biso   1.000  C
  C6       1.0000 0.53920  0.40440  0.02820  Biso   1.000  C
  C7       1.0000 0.02820  0.02820  0.53920  Biso   1.000  C
  C8       1.0000 0.40440  0.53920  0.02820  Biso   1.000  C
  C9       1.0000 0.02820  0.40440  0.53920  Biso   1.000  C
  C10      1.0000 0.53920  0.02820  0.02820  Biso   1.000  C
  C11      1.0000 0.02820  0.53920  0.40440  Biso   1.000  C
  C12      1.0000 0.40440  0.02820  0.02820  Biso   1.000  C
  C13      1.0000 0.46080  0.97180  0.97180  Biso   1.000  C
  C14      1.0000 0.97180  0.46080  0.59560  Biso   1.000  C
  C15      1.0000 0.59560  0.97180  0.97180  Biso   1.000  C
  C16      1.0000 0.97180  0.59560  0.46080  Biso   1.000  C
  C17      1.0000 0.97180  0.97180  0.59560  Biso   1.000  C
  C18      1.0000 0.59560  0.46080  0.97180  Biso   1.000  C
  C19      1.0000 0.97180  0.97180  0.46080  Biso   1.000  C
  C20      1.0000 0.46080  0.59560  0.97180  Biso   1.000  C
  C21      1.0000 0.59560  0.97180  0.46080  Biso   1.000  C
  C22      1.0000 0.97180  0.46080  0.97180  Biso   1.000  C
  C23      1.0000 0.46080  0.97180  0.59560  Biso   1.000  C
  C24      1.0000 0.97180  0.59560  0.97180  Biso   1.000  C
  C25      1.0000 0.11460  0.38540  0.11460  Biso   1.000  C
  C26      1.0000 0.05410  0.44590  0.05410  Biso   1.000  C
  C27      1.0000 0.38540  0.11460  0.38540  Biso   1.000  C
  C28      1.0000 0.44590  0.05410  0.44590  Biso   1.000  C
  C29      1.0000 0.11460  0.11460  0.38540  Biso   1.000  C
  C30      1.0000 0.05410  0.05410  0.44590  Biso   1.000  C
  C31      1.0000 0.38540  0.38540  0.11460  Biso   1.000  C
  C32      1.0000 0.44590  0.44590  0.05410  Biso   1.000  C
  C33      1.0000 0.11460  0.38540  0.38540  Biso   1.000  C
  C34      1.0000 0.05410  0.44590  0.44590  Biso   1.000  C
  C35      1.0000 0.38540  0.11460  0.11460  Biso   1.000  C
  C36      1.0000 0.44590  0.05410  0.05410  Biso   1.000  C
  C37      1.0000 0.61460  0.88540  0.88540  Biso   1.000  C
  C38      1.0000 0.55410  0.94590  0.94590  Biso   1.000  C
  C39      1.0000 0.88540  0.61460  0.61460  Biso   1.000  C
  C40      1.0000 0.94590  0.55410  0.55410  Biso   1.000  C
  C41      1.0000 0.88540  0.88540  0.61460  Biso   1.000  C
  C42      1.0000 0.94590  0.94590  0.55410  Biso   1.000  C
  C43      1.0000 0.61460  0.61460  0.88540  Biso   1.000  C
  C44      1.0000 0.55410  0.55410  0.94590  Biso   1.000  C
  C45      1.0000 0.61460  0.88540  0.61460  Biso   1.000  C
  C46      1.0000 0.55410  0.94590  0.55410  Biso   1.000  C
  C47      1.0000 0.88540  0.61460  0.88540  Biso   1.000  C
  C48      1.0000 0.94590  0.55410  0.94590  Biso   1.000  C
  O1       1.0000 0.25000  0.25000  0.25000  Biso   1.000  O
  O2       1.0000 0.75000  0.75000  0.75000  Biso   1.000  O
  O3       1.0000 0.13360  0.42920  0.13360  Biso   1.000  O
  O4       1.0000 0.42920  0.13360  0.30360  Biso   1.000  O
  O5       1.0000 0.13360  0.30360  0.13360  Biso   1.000  O
  O6       1.0000 0.30360  0.13360  0.42920  Biso   1.000  O
  O7       1.0000 0.13360  0.13360  0.30360  Biso   1.000  O
  O8       1.0000 0.42920  0.30360  0.13360  Biso   1.000  O
  O9       1.0000 0.13360  0.13360  0.42920  Biso   1.000  O
  O10      1.0000 0.30360  0.42920  0.13360  Biso   1.000  O
  O11      1.0000 0.13360  0.30360  0.42920  Biso   1.000  O
  O12      1.0000 0.42920  0.13360  0.13360  Biso   1.000  O
  O13      1.0000 0.13360  0.42920  0.30360  Biso   1.000  O
  O14      1.0000 0.30360  0.13360  0.13360  Biso   1.000  O
  O15      1.0000 0.57080  0.86640  0.86640  Biso   1.000  O
  O16      1.0000 0.86640  0.57080  0.69640  Biso   1.000  O
  O17      1.0000 0.69640  0.86640  0.86640  Biso   1.000  O
  O18      1.0000 0.86640  0.69640  0.57080  Biso   1.000  O
  O19      1.0000 0.86640  0.86640  0.69640  Biso   1.000  O
  O20      1.0000 0.69640  0.57080  0.86640  Biso   1.000  O
  O21      1.0000 0.86640  0.86640  0.57080  Biso   1.000  O
  O22      1.0000 0.57080  0.69640  0.86640  Biso   1.000  O
  O23      1.0000 0.69640  0.86640  0.57080  Biso   1.000  O
  O24      1.0000 0.86640  0.57080  0.86640  Biso   1.000  O
  O25      1.0000 0.57080  0.86640  0.69640  Biso   1.000  O
  O26      1.0000 0.86640  0.69640  0.86640  Biso   1.000  O
  Zn9      1.0000 0.00000  0.00000  0.00000  Biso   1.000  Zn
  Zn10     1.0000 0.00000  1.00000  0.17317  Biso   1.000  Zn
  Zn11     1.0000 0.82683  1.00000  0.17317  Biso   1.000  Zn
  Zn12     1.0000 1.00000  0.82683  0.17317  Biso   1.000  Zn
  Zn13     1.0000 0.41785  0.41787  0.76422  Biso   1.000  Zn
  Zn14     1.0000 0.41785  0.41787  0.59104  Biso   1.000  Zn
  Zn15     1.0000 0.41785  0.59104  0.59104  Biso   1.000  Zn
  Zn16     1.0000 0.59102  0.41787  0.59104  Biso   1.000  Zn
  H25      1.0000 0.86344  0.16038  0.81580  Biso   1.000  H
  H26      1.0000 0.16037  0.86345  0.33355  Biso   1.000  H
  H27      1.0000 0.64262  0.16038  0.03662  Biso   1.000  H
  H28      1.0000 0.16037  0.64263  0.33355  Biso   1.000  H
  H29      1.0000 0.86344  0.64263  0.33355  Biso   1.000  H
  H30      1.0000 0.16037  0.16038  0.81580  Biso   1.000  H
  H31      1.0000 0.64262  0.86345  0.33355  Biso   1.000  H
  H32      1.0000 0.16037  0.16038  0.03662  Biso   1.000  H
  H33      1.0000 0.86344  0.16038  0.33355  Biso   1.000  H
  H34      1.0000 0.16037  0.64263  0.03662  Biso   1.000  H
  H35      1.0000 0.64262  0.16038  0.33355  Biso   1.000  H
  H36      1.0000 0.16037  0.86345  0.81580  Biso   1.000  H
  H37      1.0000 0.25748  0.55442  0.94841  Biso   1.000  H
  H38      1.0000 0.55441  0.25749  0.43067  Biso   1.000  H
  H39      1.0000 0.25748  0.77524  0.72760  Biso   1.000  H
  H40      1.0000 0.77523  0.25749  0.43067  Biso   1.000  H
  H41      1.0000 0.77523  0.55442  0.43067  Biso   1.000  H
  H42      1.0000 0.25748  0.25749  0.94841  Biso   1.000  H
  H43      1.0000 0.55441  0.77524  0.43067  Biso   1.000  H
  H44      1.0000 0.25748  0.25749  0.72760  Biso   1.000  H
  H45      1.0000 0.25748  0.55442  0.43067  Biso   1.000  H
  H46      1.0000 0.77523  0.25749  0.72760  Biso   1.000  H
  H47      1.0000 0.25748  0.77524  0.43067  Biso   1.000  H
  H48      1.0000 0.55441  0.25749  0.94841  Biso   1.000  H
  C49      1.0000 0.80022  0.17868  0.84242  Biso   1.000  C
  C50      1.0000 0.17867  0.80022  0.35186  Biso   1.000  C
  C51      1.0000 0.66923  0.17868  0.97340  Biso   1.000  C
  C52      1.0000 0.17867  0.66924  0.35186  Biso   1.000  C
  C53      1.0000 0.80022  0.66924  0.35186  Biso   1.000  C
  C54      1.0000 0.17867  0.17868  0.84242  Biso   1.000  C
  C55      1.0000 0.66923  0.80022  0.35186  Biso   1.000  C
  C56      1.0000 0.17867  0.17868  0.97340  Biso   1.000  C
  C57      1.0000 0.80021  0.17868  0.35186  Biso   1.000  C
  C58      1.0000 0.17867  0.66924  0.97340  Biso   1.000  C
  C59      1.0000 0.66923  0.17868  0.35186  Biso   1.000  C
  C60      1.0000 0.17867  0.80022  0.84242  Biso   1.000  C
  C61      1.0000 0.23918  0.61765  0.92180  Biso   1.000  C
  C62      1.0000 0.61764  0.23919  0.41236  Biso   1.000  C
  C63      1.0000 0.23918  0.74863  0.79082  Biso   1.000  C
  C64      1.0000 0.74862  0.23919  0.41236  Biso   1.000  C
  C65      1.0000 0.74862  0.61765  0.41236  Biso   1.000  C
  C66      1.0000 0.23918  0.23919  0.92180  Biso   1.000  C
  C67      1.0000 0.61764  0.74863  0.41236  Biso   1.000  C
  C68      1.0000 0.23918  0.23919  0.79082  Biso   1.000  C
  C69      1.0000 0.23918  0.61765  0.41236  Biso   1.000  C
  C70      1.0000 0.74862  0.23919  0.79082  Biso   1.000  C
  C71      1.0000 0.23918  0.74863  0.41236  Biso   1.000  C
  C72      1.0000 0.61764  0.23919  0.92180  Biso   1.000  C
  C73      1.0000 0.76165  0.15176  0.93484  Biso   1.000  C
  C74      1.0000 0.81953  0.09388  0.99272  Biso   1.000  C
  C75      1.0000 0.15175  0.76166  0.32493  Biso   1.000  C
  C76      1.0000 0.09387  0.81954  0.26705  Biso   1.000  C
  C77      1.0000 0.76165  0.76166  0.32493  Biso   1.000  C
  C78      1.0000 0.81953  0.81954  0.26705  Biso   1.000  C
  C79      1.0000 0.15175  0.15176  0.93484  Biso   1.000  C
  C80      1.0000 0.09387  0.09388  0.99272  Biso   1.000  C
  C81      1.0000 0.76165  0.15176  0.32493  Biso   1.000  C
  C82      1.0000 0.81953  0.09388  0.26705  Biso   1.000  C
  C83      1.0000 0.15175  0.76166  0.93484  Biso   1.000  C
  C84      1.0000 0.09387  0.81954  0.99272  Biso   1.000  C
  C85      1.0000 0.26610  0.65621  0.82938  Biso   1.000  C
  C86      1.0000 0.32398  0.59833  0.77150  Biso   1.000  C
  C87      1.0000 0.65620  0.26611  0.43929  Biso   1.000  C
  C88      1.0000 0.59832  0.32399  0.49717  Biso   1.000  C
  C89      1.0000 0.65620  0.65621  0.43929  Biso   1.000  C
  C90      1.0000 0.59832  0.59833  0.49717  Biso   1.000  C
  C91      1.0000 0.26610  0.26611  0.82938  Biso   1.000  C
  C92      1.0000 0.32398  0.32399  0.77150  Biso   1.000  C
  C93      1.0000 0.26610  0.65621  0.43929  Biso   1.000  C
  C94      1.0000 0.32398  0.59833  0.49717  Biso   1.000  C
  C95      1.0000 0.65620  0.26611  0.82938  Biso   1.000  C
  C96      1.0000 0.59832  0.32399  0.77150  Biso   1.000  C
  O27      1.0000 0.95670  0.95671  0.12988  Biso   1.000  O
  O28      1.0000 0.46115  0.46116  0.63434  Biso   1.000  O
  O29      1.0000 0.90525  0.07202  0.95070  Biso   1.000  O
  O30      1.0000 0.07201  0.90526  0.24520  Biso   1.000  O
  O31      1.0000 0.77752  0.07202  0.07844  Biso   1.000  O
  O32      1.0000 0.07201  0.77753  0.24520  Biso   1.000  O
  O33      1.0000 0.90525  0.77753  0.24520  Biso   1.000  O
  O34      1.0000 0.07201  0.07202  0.95070  Biso   1.000  O
  O35      1.0000 0.77752  0.90526  0.24520  Biso   1.000  O
  O36      1.0000 0.07201  0.07202  0.07844  Biso   1.000  O
  O37      1.0000 0.90525  0.07202  0.24520  Biso   1.000  O
  O38      1.0000 0.07201  0.77753  0.07844  Biso   1.000  O
  O39      1.0000 0.77752  0.07202  0.24520  Biso   1.000  O
  O40      1.0000 0.07201  0.90526  0.95070  Biso   1.000  O
  O41      1.0000 0.34584  0.51261  0.81352  Biso   1.000  O
  O42      1.0000 0.51260  0.34585  0.51902  Biso   1.000  O
  O43      1.0000 0.34584  0.64034  0.68578  Biso   1.000  O
  O44      1.0000 0.64033  0.34585  0.51902  Biso   1.000  O
  O45      1.0000 0.64033  0.51261  0.51902  Biso   1.000  O
  O46      1.0000 0.34584  0.34585  0.81352  Biso   1.000  O
  O47      1.0000 0.51260  0.64034  0.51902  Biso   1.000  O
  O48      1.0000 0.34584  0.34585  0.68578  Biso   1.000  O
  O49      1.0000 0.34584  0.51261  0.51902  Biso   1.000  O
  O50      1.0000 0.64033  0.34585  0.68578  Biso   1.000  O
  O51      1.0000 0.34584  0.64034  0.51902  Biso   1.000  O
