data_image0
_cell_length_a       18.3054
_cell_length_b       18.3054
_cell_length_c       18.3054
_cell_angle_alpha    60
_cell_angle_beta     60
_cell_angle_gamma    60

_symmetry_space_group_name_H-M    "P 1"
_symmetry_int_tables_number       1

loop_
  _symmetry_equiv_pos_as_xyz
  'x, y, z'

loop_
  _atom_site_label
  _atom_site_occupancy
  _atom_site_fract_x
  _atom_site_fract_y
  _atom_site_fract_z
  _atom_site_thermal_displace_type
  _atom_site_B_iso_or_equiv
  _atom_site_type_symbol
  C1       1.0000 0.20620  0.38140  0.20620  Biso   1.000  C
  C2       1.0000 0.38140  0.20620  0.20620  Biso   1.000  C
  C3       1.0000 0.20620  0.20620  0.20620  Biso   1.000  C
  C4       1.0000 0.20620  0.20620  0.38140  Biso   1.000  C
  C5       1.0000 0.61860  0.79380  0.79380  Biso   1.000  C
  C6       1.0000 0.79380  0.61860  0.79380  Biso   1.000  C
  C7       1.0000 0.79380  0.79380  0.79380  Biso   1.000  C
  C8       1.0000 0.79380  0.79380  0.61860  Biso   1.000  C
  C9       1.0000 0.04910  0.56290  0.04910  Biso   1.000  C
  C10      1.0000 0.56290  0.04910  0.33890  Biso   1.000  C
  C11      1.0000 0.04910  0.33890  0.04910  Biso   1.000  C
  C12      1.0000 0.33890  0.04910  0.56290  Biso   1.000  C
  C13      1.0000 0.04910  0.04910  0.33890  Biso   1.000  C
  C14      1.0000 0.56290  0.33890  0.04910  Biso   1.000  C
  C15      1.0000 0.04910  0.04910  0.56290  Biso   1.000  C
  C16      1.0000 0.33890  0.56290  0.04910  Biso   1.000  C
  C17      1.0000 0.04910  0.33890  0.56290  Biso   1.000  C
  C18      1.0000 0.56290  0.04910  0.04910  Biso   1.000  C
  C19      1.0000 0.04910  0.56290  0.33890  Biso   1.000  C
  C20      1.0000 0.33890  0.04910  0.04910  Biso   1.000  C
  C21      1.0000 0.43710  0.95090  0.95090  Biso   1.000  C
  C22      1.0000 0.95090  0.43710  0.66110  Biso   1.000  C
  C23      1.0000 0.66110  0.95090  0.95090  Biso   1.000  C
  C24      1.0000 0.95090  0.66110  0.43710  Biso   1.000  C
  C25      1.0000 0.95090  0.95090  0.66110  Biso   1.000  C
  C26      1.0000 0.66110  0.43710  0.95090  Biso   1.000  C
  C27      1.0000 0.95090  0.95090  0.43710  Biso   1.000  C
  C28      1.0000 0.43710  0.66110  0.95090  Biso   1.000  C
  C29      1.0000 0.66110  0.95090  0.43710  Biso   1.000  C
  C30      1.0000 0.95090  0.43710  0.95090  Biso   1.000  C
  C31      1.0000 0.43710  0.95090  0.66110  Biso   1.000  C
  C32      1.0000 0.95090  0.66110  0.95090  Biso   1.000  C
  C33      1.0000 0.02610  0.53970  0.02610  Biso   1.000  C
  C34      1.0000 0.53970  0.02610  0.40810  Biso   1.000  C
  C35      1.0000 0.02610  0.40810  0.02610  Biso   1.000  C
  C36      1.0000 0.40810  0.02610  0.53970  Biso   1.000  C
  C37      1.0000 0.02610  0.02610  0.40810  Biso   1.000  C
  C38      1.0000 0.53970  0.40810  0.02610  Biso   1.000  C
  C39      1.0000 0.02610  0.02610  0.53970  Biso   1.000  C
  C40      1.0000 0.40810  0.53970  0.02610  Biso   1.000  C
  C41      1.0000 0.02610  0.40810  0.53970  Biso   1.000  C
  C42      1.0000 0.53970  0.02610  0.02610  Biso   1.000  C
  C43      1.0000 0.02610  0.53970  0.40810  Biso   1.000  C
  C44      1.0000 0.40810  0.02610  0.02610  Biso   1.000  C
  C45      1.0000 0.46030  0.97390  0.97390  Biso   1.000  C
  C46      1.0000 0.97390  0.46030  0.59190  Biso   1.000  C
  C47      1.0000 0.59190  0.97390  0.97390  Biso   1.000  C
  C48      1.0000 0.97390  0.59190  0.46030  Biso   1.000  C
  C49      1.0000 0.97390  0.97390  0.59190  Biso   1.000  C
  C50      1.0000 0.59190  0.46030  0.97390  Biso   1.000  C
  C51      1.0000 0.97390  0.97390  0.46030  Biso   1.000  C
  C52      1.0000 0.46030  0.59190  0.97390  Biso   1.000  C
  C53      1.0000 0.59190  0.97390  0.46030  Biso   1.000  C
  C54      1.0000 0.97390  0.46030  0.97390  Biso   1.000  C
  C55      1.0000 0.46030  0.97390  0.59190  Biso   1.000  C
  C56      1.0000 0.97390  0.59190  0.97390  Biso   1.000  C
  C57      1.0000 0.10850  0.39150  0.10850  Biso   1.000  C
  C58      1.0000 0.05500  0.44500  0.05500  Biso   1.000  C
  C59      1.0000 0.39150  0.10850  0.39150  Biso   1.000  C
  C60      1.0000 0.44500  0.05500  0.44500  Biso   1.000  C
  C61      1.0000 0.10850  0.10850  0.39150  Biso   1.000  C
  C62      1.0000 0.05500  0.05500  0.44500  Biso   1.000  C
  C63      1.0000 0.39150  0.39150  0.10850  Biso   1.000  C
  C64      1.0000 0.44500  0.44500  0.05500  Biso   1.000  C
  C65      1.0000 0.10850  0.39150  0.39150  Biso   1.000  C
  C66      1.0000 0.05500  0.44500  0.44500  Biso   1.000  C
  C67      1.0000 0.39150  0.10850  0.10850  Biso   1.000  C
  C68      1.0000 0.44500  0.05500  0.05500  Biso   1.000  C
  C69      1.0000 0.60850  0.89150  0.89150  Biso   1.000  C
  C70      1.0000 0.55500  0.94500  0.94500  Biso   1.000  C
  C71      1.0000 0.89150  0.60850  0.60850  Biso   1.000  C
  C72      1.0000 0.94500  0.55500  0.55500  Biso   1.000  C
  C73      1.0000 0.89150  0.89150  0.60850  Biso   1.000  C
  C74      1.0000 0.94500  0.94500  0.55500  Biso   1.000  C
  C75      1.0000 0.60850  0.60850  0.89150  Biso   1.000  C
  C76      1.0000 0.55500  0.55500  0.94500  Biso   1.000  C
  C77      1.0000 0.60850  0.89150  0.60850  Biso   1.000  C
  C78      1.0000 0.55500  0.94500  0.55500  Biso   1.000  C
  C79      1.0000 0.89150  0.60850  0.89150  Biso   1.000  C
  C80      1.0000 0.94500  0.55500  0.94500  Biso   1.000  C
  C81      1.0000 0.25000  0.25000  0.25000  Biso   1.000  C
  C82      1.0000 0.75000  0.75000  0.75000  Biso   1.000  C
  C83      1.0000 0.13390  0.42730  0.13390  Biso   1.000  C
  C84      1.0000 0.42730  0.13390  0.30490  Biso   1.000  C
  C85      1.0000 0.13390  0.30490  0.13390  Biso   1.000  C
  C86      1.0000 0.30490  0.13390  0.42730  Biso   1.000  C
  C87      1.0000 0.13390  0.13390  0.30490  Biso   1.000  C
  C88      1.0000 0.42730  0.30490  0.13390  Biso   1.000  C
  C89      1.0000 0.13390  0.13390  0.42730  Biso   1.000  C
  C90      1.0000 0.30490  0.42730  0.13390  Biso   1.000  C
  C91      1.0000 0.13390  0.30490  0.42730  Biso   1.000  C
  C92      1.0000 0.42730  0.13390  0.13390  Biso   1.000  C
  C93      1.0000 0.13390  0.42730  0.30490  Biso   1.000  C
  C94      1.0000 0.30490  0.13390  0.13390  Biso   1.000  C
  C95      1.0000 0.57270  0.86610  0.86610  Biso   1.000  C
  C96      1.0000 0.86610  0.57270  0.69510  Biso   1.000  C
  C97      1.0000 0.69510  0.86610  0.86610  Biso   1.000  C
  C98      1.0000 0.86610  0.69510  0.57270  Biso   1.000  C
  C99      1.0000 0.86610  0.86610  0.69510  Biso   1.000  C
  C100     1.0000 0.69510  0.57270  0.86610  Biso   1.000  C
  C101     1.0000 0.86610  0.86610  0.57270  Biso   1.000  C
  C102     1.0000 0.57270  0.69510  0.86610  Biso   1.000  C
  C103     1.0000 0.69510  0.86610  0.57270  Biso   1.000  C
  C104     1.0000 0.86610  0.57270  0.86610  Biso   1.000  C
  C105     1.0000 0.57270  0.86610  0.69510  Biso   1.000  C
  C106     1.0000 0.86610  0.69510  0.86610  Biso   1.000  C
  O1       1.0000 0.85254  0.01848  0.13381  Biso   1.000  O
  O2       1.0000 0.43346  0.59939  0.54163  Biso   1.000  O
  O3       1.0000 0.60670  0.42615  0.54163  Biso   1.000  O
  O4       1.0000 0.02579  0.84523  0.13381  Biso   1.000  O
  O5       1.0000 0.02587  0.01855  0.96037  Biso   1.000  O
  O6       1.0000 0.02561  0.01830  0.13394  Biso   1.000  O
  O7       1.0000 0.43338  0.42607  0.71507  Biso   1.000  O
  O8       1.0000 0.43364  0.42633  0.54150  Biso   1.000  O
  O9       1.0000 0.88826  0.17483  0.76650  Biso   1.000  O
  O10      1.0000 0.65761  0.17329  0.99774  Biso   1.000  O
  O11      1.0000 0.65562  0.88235  0.28778  Biso   1.000  O
  O12      1.0000 0.27711  0.56368  0.90894  Biso   1.000  O
  O13      1.0000 0.27865  0.79433  0.67770  Biso   1.000  O
  O14      1.0000 0.56958  0.79632  0.38766  Biso   1.000  O
  O15      1.0000 0.57099  0.26980  0.90894  Biso   1.000  O
  O16      1.0000 0.80164  0.27134  0.67770  Biso   1.000  O
  O17      1.0000 0.80363  0.56227  0.38766  Biso   1.000  O
  O18      1.0000 0.18214  0.88094  0.76650  Biso   1.000  O
  O19      1.0000 0.18060  0.65030  0.99774  Biso   1.000  O
  O20      1.0000 0.88966  0.64831  0.28778  Biso   1.000  O
  O21      1.0000 0.85547  0.10644  0.95591  Biso   1.000  O
  O22      1.0000 0.78635  0.17082  0.89678  Biso   1.000  O
  O23      1.0000 0.82497  0.19618  0.79281  Biso   1.000  O
  O24      1.0000 0.68461  0.19475  0.93465  Biso   1.000  O
  O25      1.0000 0.85190  0.10583  0.22103  Biso   1.000  O
  O26      1.0000 0.68162  0.81936  0.31142  Biso   1.000  O
  O27      1.0000 0.34549  0.59647  0.71953  Biso   1.000  O
  O28      1.0000 0.28112  0.66558  0.77867  Biso   1.000  O
  O29      1.0000 0.25575  0.62697  0.88263  Biso   1.000  O
  O30      1.0000 0.25719  0.76733  0.74079  Biso   1.000  O
  O31      1.0000 0.34610  0.60004  0.45441  Biso   1.000  O
  O32      1.0000 0.63257  0.77032  0.36403  Biso   1.000  O
  O33      1.0000 0.60378  0.33818  0.71953  Biso   1.000  O
  O34      1.0000 0.67289  0.27381  0.77867  Biso   1.000  O
  O35      1.0000 0.63428  0.24844  0.88263  Biso   1.000  O
  O36      1.0000 0.77464  0.24988  0.74079  Biso   1.000  O
  O37      1.0000 0.60735  0.33879  0.45441  Biso   1.000  O
  O38      1.0000 0.77763  0.62526  0.36403  Biso   1.000  O
  O39      1.0000 0.11375  0.84816  0.95591  Biso   1.000  O
  O40      1.0000 0.17813  0.77904  0.89678  Biso   1.000  O
  O41      1.0000 0.20349  0.81766  0.79281  Biso   1.000  O
  O42      1.0000 0.20206  0.67730  0.93465  Biso   1.000  O
  O43      1.0000 0.11315  0.84458  0.22103  Biso   1.000  O
  O44      1.0000 0.82667  0.67431  0.31142  Biso   1.000  O
  O45      1.0000 0.11405  0.10674  0.95601  Biso   1.000  O
  O46      1.0000 0.85081  0.84350  0.22014  Biso   1.000  O
  O47      1.0000 0.78614  0.77882  0.28877  Biso   1.000  O
  O48      1.0000 0.34520  0.33789  0.71943  Biso   1.000  O
  O49      1.0000 0.60844  0.60113  0.45530  Biso   1.000  O
  O50      1.0000 0.67311  0.66580  0.38667  Biso   1.000  O
  O51      1.0000 0.93280  0.09023  0.91220  Biso   1.000  O
  O52      1.0000 0.80385  0.09101  0.03838  Biso   1.000  O
  O53      1.0000 0.93259  0.09041  0.20481  Biso   1.000  O
  O54      1.0000 0.80246  0.09061  0.20491  Biso   1.000  O
  O55      1.0000 0.80275  0.92478  0.20650  Biso   1.000  O
  O56      1.0000 0.36171  0.51914  0.76324  Biso   1.000  O
  O57      1.0000 0.36092  0.64809  0.63706  Biso   1.000  O
  O58      1.0000 0.36153  0.51935  0.47063  Biso   1.000  O
  O59      1.0000 0.36133  0.64948  0.47053  Biso   1.000  O
  O60      1.0000 0.52716  0.64919  0.46895  Biso   1.000  O
  O61      1.0000 0.52645  0.35440  0.76324  Biso   1.000  O
  O62      1.0000 0.65540  0.35361  0.63706  Biso   1.000  O
  O63      1.0000 0.52666  0.35422  0.47063  Biso   1.000  O
  O64      1.0000 0.65679  0.35402  0.47053  Biso   1.000  O
  O65      1.0000 0.65650  0.51985  0.46895  Biso   1.000  O
  O66      1.0000 0.09754  0.92549  0.91220  Biso   1.000  O
  O67      1.0000 0.09832  0.79654  0.03838  Biso   1.000  O
  O68      1.0000 0.09772  0.92527  0.20481  Biso   1.000  O
  O69      1.0000 0.09792  0.79514  0.20491  Biso   1.000  O
  O70      1.0000 0.93209  0.79544  0.20650  Biso   1.000  O
  O71      1.0000 0.98114  0.97383  0.09169  Biso   1.000  O
  O72      1.0000 0.09744  0.09013  0.91072  Biso   1.000  O
  O73      1.0000 0.09733  0.09002  0.04016  Biso   1.000  O
  O74      1.0000 0.47810  0.47079  0.58376  Biso   1.000  O
  O75      1.0000 0.36181  0.35450  0.76472  Biso   1.000  O
