data_image0
_cell_length_a       18.1424
_cell_length_b       18.1424
_cell_length_c       18.1424
_cell_angle_alpha    60
_cell_angle_beta     60
_cell_angle_gamma    60

_symmetry_space_group_name_H-M    "P 1"
_symmetry_int_tables_number       1

loop_
  _symmetry_equiv_pos_as_xyz
  'x, y, z'

loop_
  _atom_site_label
  _atom_site_occupancy
  _atom_site_fract_x
  _atom_site_fract_y
  _atom_site_fract_z
  _atom_site_thermal_displace_type
  _atom_site_B_iso_or_equiv
  _atom_site_type_symbol
  C1       1.0000 0.79369  0.79368  0.61895  Biso   1.000  C
  C2       1.0000 0.79369  0.79368  0.79368  Biso   1.000  C
  C3       1.0000 0.61896  0.79368  0.79368  Biso   1.000  C
  C4       1.0000 0.79369  0.61895  0.79368  Biso   1.000  C
  C5       1.0000 0.20631  0.20632  0.38105  Biso   1.000  C
  C6       1.0000 0.20631  0.20632  0.20632  Biso   1.000  C
  C7       1.0000 0.20631  0.38105  0.20632  Biso   1.000  C
  C8       1.0000 0.38104  0.20632  0.20632  Biso   1.000  C
  C9       1.0000 0.65590  0.95550  0.43310  Biso   1.000  C
  C10      1.0000 0.95550  0.65590  0.95550  Biso   1.000  C
  C11      1.0000 0.43310  0.95550  0.65590  Biso   1.000  C
  C12      1.0000 0.95550  0.43310  0.95550  Biso   1.000  C
  C13      1.0000 0.65590  0.43310  0.95550  Biso   1.000  C
  C14      1.0000 0.95550  0.95550  0.43310  Biso   1.000  C
  C15      1.0000 0.43310  0.65590  0.95550  Biso   1.000  C
  C16      1.0000 0.95550  0.95550  0.65590  Biso   1.000  C
  C17      1.0000 0.65590  0.95550  0.95550  Biso   1.000  C
  C18      1.0000 0.95550  0.43310  0.65590  Biso   1.000  C
  C19      1.0000 0.43310  0.95550  0.95550  Biso   1.000  C
  C20      1.0000 0.95550  0.65590  0.43310  Biso   1.000  C
  C21      1.0000 0.04450  0.34410  0.56690  Biso   1.000  C
  C22      1.0000 0.34410  0.04450  0.04450  Biso   1.000  C
  C23      1.0000 0.04450  0.56690  0.34410  Biso   1.000  C
  C24      1.0000 0.56690  0.04450  0.04450  Biso   1.000  C
  C25      1.0000 0.56690  0.34410  0.04450  Biso   1.000  C
  C26      1.0000 0.04450  0.04450  0.56690  Biso   1.000  C
  C27      1.0000 0.34410  0.56690  0.04450  Biso   1.000  C
  C28      1.0000 0.04450  0.04450  0.34410  Biso   1.000  C
  C29      1.0000 0.04450  0.34410  0.04450  Biso   1.000  C
  C30      1.0000 0.56690  0.04450  0.34410  Biso   1.000  C
  C31      1.0000 0.04450  0.56690  0.04450  Biso   1.000  C
  C32      1.0000 0.34410  0.04450  0.56690  Biso   1.000  C
  C33      1.0000 0.59211  0.97397  0.45995  Biso   1.000  C
  C34      1.0000 0.97397  0.59211  0.97397  Biso   1.000  C
  C35      1.0000 0.45995  0.97397  0.59211  Biso   1.000  C
  C36      1.0000 0.97397  0.45995  0.97397  Biso   1.000  C
  C37      1.0000 0.59211  0.45995  0.97397  Biso   1.000  C
  C38      1.0000 0.97397  0.97397  0.45995  Biso   1.000  C
  C39      1.0000 0.45995  0.59211  0.97397  Biso   1.000  C
  C40      1.0000 0.97397  0.97397  0.59211  Biso   1.000  C
  C41      1.0000 0.59211  0.97397  0.97397  Biso   1.000  C
  C42      1.0000 0.97397  0.45995  0.59211  Biso   1.000  C
  C43      1.0000 0.45995  0.97397  0.97397  Biso   1.000  C
  C44      1.0000 0.97397  0.59211  0.45995  Biso   1.000  C
  C45      1.0000 0.02603  0.40789  0.54005  Biso   1.000  C
  C46      1.0000 0.40789  0.02603  0.02603  Biso   1.000  C
  C47      1.0000 0.02603  0.54005  0.40789  Biso   1.000  C
  C48      1.0000 0.54005  0.02603  0.02603  Biso   1.000  C
  C49      1.0000 0.54005  0.40789  0.02603  Biso   1.000  C
  C50      1.0000 0.02603  0.02603  0.54005  Biso   1.000  C
  C51      1.0000 0.40789  0.54005  0.02603  Biso   1.000  C
  C52      1.0000 0.02603  0.02603  0.40789  Biso   1.000  C
  C53      1.0000 0.02603  0.40789  0.02603  Biso   1.000  C
  C54      1.0000 0.54005  0.02603  0.40789  Biso   1.000  C
  C55      1.0000 0.02603  0.54005  0.02603  Biso   1.000  C
  C56      1.0000 0.40789  0.02603  0.54005  Biso   1.000  C
  C57      1.0000 0.55320  0.94680  0.55320  Biso   1.000  C
  C58      1.0000 0.61160  0.88840  0.61160  Biso   1.000  C
  C59      1.0000 0.94680  0.55320  0.94680  Biso   1.000  C
  C60      1.0000 0.88840  0.61160  0.88840  Biso   1.000  C
  C61      1.0000 0.55320  0.55320  0.94680  Biso   1.000  C
  C62      1.0000 0.61160  0.61160  0.88840  Biso   1.000  C
  C63      1.0000 0.94680  0.94680  0.55320  Biso   1.000  C
  C64      1.0000 0.88840  0.88840  0.61160  Biso   1.000  C
  C65      1.0000 0.55320  0.94680  0.94680  Biso   1.000  C
  C66      1.0000 0.61160  0.88840  0.88840  Biso   1.000  C
  C67      1.0000 0.94680  0.55320  0.55320  Biso   1.000  C
  C68      1.0000 0.88840  0.61160  0.61160  Biso   1.000  C
  C69      1.0000 0.05320  0.44680  0.44680  Biso   1.000  C
  C70      1.0000 0.11160  0.38840  0.38840  Biso   1.000  C
  C71      1.0000 0.44680  0.05320  0.05320  Biso   1.000  C
  C72      1.0000 0.38840  0.11160  0.11160  Biso   1.000  C
  C73      1.0000 0.44680  0.44680  0.05320  Biso   1.000  C
  C74      1.0000 0.38840  0.38840  0.11160  Biso   1.000  C
  C75      1.0000 0.05320  0.05320  0.44680  Biso   1.000  C
  C76      1.0000 0.11160  0.11160  0.38840  Biso   1.000  C
  C77      1.0000 0.05320  0.44680  0.05320  Biso   1.000  C
  C78      1.0000 0.11160  0.38840  0.11160  Biso   1.000  C
  C79      1.0000 0.44680  0.05320  0.44680  Biso   1.000  C
  C80      1.0000 0.38840  0.11160  0.38840  Biso   1.000  C
  C81      1.0000 0.75000  0.75000  0.75000  Biso   1.000  C
  C82      1.0000 0.25000  0.25000  0.25000  Biso   1.000  C
  C83      1.0000 0.69809  0.86635  0.56921  Biso   1.000  C
  C84      1.0000 0.86635  0.69809  0.86635  Biso   1.000  C
  C85      1.0000 0.56921  0.86635  0.69809  Biso   1.000  C
  C86      1.0000 0.86635  0.56921  0.86635  Biso   1.000  C
  C87      1.0000 0.69809  0.56921  0.86635  Biso   1.000  C
  C88      1.0000 0.86635  0.86635  0.56921  Biso   1.000  C
  C89      1.0000 0.56921  0.69809  0.86635  Biso   1.000  C
  C90      1.0000 0.86635  0.86635  0.69809  Biso   1.000  C
  C91      1.0000 0.69809  0.86635  0.86635  Biso   1.000  C
  C92      1.0000 0.86635  0.56921  0.69809  Biso   1.000  C
  C93      1.0000 0.56921  0.86635  0.86635  Biso   1.000  C
  C94      1.0000 0.86635  0.69809  0.56921  Biso   1.000  C
  C95      1.0000 0.13365  0.30191  0.43079  Biso   1.000  C
  C96      1.0000 0.30191  0.13365  0.13365  Biso   1.000  C
  C97      1.0000 0.13365  0.43079  0.30191  Biso   1.000  C
  C98      1.0000 0.43079  0.13365  0.13365  Biso   1.000  C
  C99      1.0000 0.43079  0.30191  0.13365  Biso   1.000  C
  C100     1.0000 0.13365  0.13365  0.43079  Biso   1.000  C
  C101     1.0000 0.30191  0.43079  0.13365  Biso   1.000  C
  C102     1.0000 0.13365  0.13365  0.30191  Biso   1.000  C
  C103     1.0000 0.13365  0.30191  0.13365  Biso   1.000  C
  C104     1.0000 0.43079  0.13365  0.30191  Biso   1.000  C
  C105     1.0000 0.13365  0.43079  0.13365  Biso   1.000  C
  C106     1.0000 0.30191  0.13365  0.43079  Biso   1.000  C
  O1       1.0000 0.40616  0.47895  0.47255  Biso   1.000  O
  O2       1.0000 0.40621  0.65231  0.47250  Biso   1.000  O
  O3       1.0000 0.57957  0.47895  0.47255  Biso   1.000  O
  O4       1.0000 0.40621  0.47890  0.64591  Biso   1.000  O
  O5       1.0000 0.99313  0.06539  0.05900  Biso   1.000  O
  O6       1.0000 0.99309  0.89203  0.05905  Biso   1.000  O
  O7       1.0000 0.81972  0.06539  0.05900  Biso   1.000  O
  O8       1.0000 0.99308  0.06544  0.88564  Biso   1.000  O
  O9       1.0000 0.22565  0.67993  0.29300  Biso   1.000  O
  O10      1.0000 0.60741  0.29918  0.29099  Biso   1.000  O
  O11      1.0000 0.22505  0.30018  0.67354  Biso   1.000  O
  O12      1.0000 0.22667  0.81096  0.29200  Biso   1.000  O
  O13      1.0000 0.22466  0.81198  0.67374  Biso   1.000  O
  O14      1.0000 0.60722  0.81077  0.29139  Biso   1.000  O
  O15      1.0000 0.73865  0.29939  0.67353  Biso   1.000  O
  O16      1.0000 0.73966  0.29738  0.29279  Biso   1.000  O
  O17      1.0000 0.73846  0.67994  0.29379  Biso   1.000  O
  O18      1.0000 0.60761  0.29839  0.80458  Biso   1.000  O
  O19      1.0000 0.22686  0.68014  0.80559  Biso   1.000  O
  O20      1.0000 0.22787  0.29778  0.80439  Biso   1.000  O
  O21      1.0000 0.17364  0.86441  0.23856  Biso   1.000  O
  O22      1.0000 0.79189  0.24516  0.24057  Biso   1.000  O
  O23      1.0000 0.17425  0.24415  0.85801  Biso   1.000  O
  O24      1.0000 0.17262  0.73337  0.23956  Biso   1.000  O
  O25      1.0000 0.17464  0.73236  0.85781  Biso   1.000  O
  O26      1.0000 0.79208  0.73356  0.24017  Biso   1.000  O
  O27      1.0000 0.66064  0.24494  0.85802  Biso   1.000  O
  O28      1.0000 0.65963  0.24696  0.23877  Biso   1.000  O
  O29      1.0000 0.66084  0.86440  0.23776  Biso   1.000  O
  O30      1.0000 0.79168  0.24595  0.72698  Biso   1.000  O
  O31      1.0000 0.17244  0.86420  0.72597  Biso   1.000  O
  O32      1.0000 0.17143  0.24656  0.72717  Biso   1.000  O
  O33      1.0000 0.25325  0.71856  0.31960  Biso   1.000  O
  O34      1.0000 0.31196  0.65985  0.37830  Biso   1.000  O
  O35      1.0000 0.64582  0.32600  0.71216  Biso   1.000  O
  O36      1.0000 0.58712  0.38470  0.65346  Biso   1.000  O
  O37      1.0000 0.14604  0.82578  0.21195  Biso   1.000  O
  O38      1.0000 0.08734  0.88448  0.15325  Biso   1.000  O
  O39      1.0000 0.75347  0.21834  0.81939  Biso   1.000  O
  O40      1.0000 0.81218  0.15964  0.87810  Biso   1.000  O
  O41      1.0000 0.25306  0.32580  0.71236  Biso   1.000  O
  O42      1.0000 0.31148  0.38422  0.65394  Biso   1.000  O
  O43      1.0000 0.64602  0.71876  0.31940  Biso   1.000  O
  O44      1.0000 0.58759  0.66033  0.37782  Biso   1.000  O
  O45      1.0000 0.14624  0.21854  0.81919  Biso   1.000  O
  O46      1.0000 0.08781  0.16012  0.87762  Biso   1.000  O
  O47      1.0000 0.75328  0.82558  0.21215  Biso   1.000  O
  O48      1.0000 0.81170  0.88400  0.15373  Biso   1.000  O
  O49      1.0000 0.64623  0.32559  0.31920  Biso   1.000  O
  O50      1.0000 0.58780  0.38402  0.37762  Biso   1.000  O
  O51      1.0000 0.25285  0.71896  0.71256  Biso   1.000  O
  O52      1.0000 0.31128  0.66054  0.65414  Biso   1.000  O
  O53      1.0000 0.75307  0.21875  0.21235  Biso   1.000  O
  O54      1.0000 0.81150  0.16032  0.15393  Biso   1.000  O
  O55      1.0000 0.14644  0.82538  0.81899  Biso   1.000  O
  O56      1.0000 0.08802  0.88380  0.87742  Biso   1.000  O
  O57      1.0000 0.33457  0.57558  0.39931  Biso   1.000  O
  O58      1.0000 0.33263  0.40731  0.57002  Biso   1.000  O
  O59      1.0000 0.50242  0.40695  0.39973  Biso   1.000  O
  O60      1.0000 0.33297  0.70051  0.40091  Biso   1.000  O
  O61      1.0000 0.50368  0.70001  0.39897  Biso   1.000  O
  O62      1.0000 0.33339  0.70087  0.56876  Biso   1.000  O
  O63      1.0000 0.62778  0.40571  0.56918  Biso   1.000  O
  O64      1.0000 0.62727  0.57642  0.40091  Biso   1.000  O
  O65      1.0000 0.62814  0.40613  0.40055  Biso   1.000  O
  O66      1.0000 0.50284  0.40731  0.69411  Biso   1.000  O
  O67      1.0000 0.33457  0.40537  0.69361  Biso   1.000  O
  O68      1.0000 0.33421  0.57516  0.69447  Biso   1.000  O
  O69      1.0000 0.06473  0.96876  0.13224  Biso   1.000  O
  O70      1.0000 0.06666  0.13703  0.96153  Biso   1.000  O
  O71      1.0000 0.89687  0.13739  0.13182  Biso   1.000  O
  O72      1.0000 0.06633  0.84383  0.13064  Biso   1.000  O
  O73      1.0000 0.89562  0.84433  0.13258  Biso   1.000  O
  O74      1.0000 0.06591  0.84346  0.96279  Biso   1.000  O
  O75      1.0000 0.77152  0.13863  0.96237  Biso   1.000  O
  O76      1.0000 0.77202  0.96792  0.13064  Biso   1.000  O
  O77      1.0000 0.77116  0.13821  0.13100  Biso   1.000  O
  O78      1.0000 0.89645  0.13703  0.83744  Biso   1.000  O
  O79      1.0000 0.06472  0.13897  0.83794  Biso   1.000  O
  O80      1.0000 0.06509  0.96918  0.83708  Biso   1.000  O
  O81      1.0000 0.44954  0.52228  0.51588  Biso   1.000  O
  O82      1.0000 0.94976  0.02206  0.01567  Biso   1.000  O
  O83      1.0000 0.53078  0.32214  0.31247  Biso   1.000  O
  O84      1.0000 0.77186  0.31886  0.31575  Biso   1.000  O
  O85      1.0000 0.86852  0.22220  0.21909  Biso   1.000  O
  O86      1.0000 0.62744  0.22548  0.21581  Biso   1.000  O
  O87      1.0000 0.77065  0.60332  0.31700  Biso   1.000  O
  O88      1.0000 0.86870  0.70137  0.21895  Biso   1.000  O
  O89      1.0000 0.24627  0.32339  0.59692  Biso   1.000  O
  O90      1.0000 0.14822  0.22534  0.69497  Biso   1.000  O
  O91      1.0000 0.24930  0.84317  0.31380  Biso   1.000  O
  O92      1.0000 0.24614  0.84417  0.59711  Biso   1.000  O
  O93      1.0000 0.86831  0.22415  0.69477  Biso   1.000  O
  O94      1.0000 0.14948  0.94083  0.69377  Biso   1.000  O
  O95      1.0000 0.53060  0.84297  0.31261  Biso   1.000  O
  O96      1.0000 0.62865  0.94102  0.21456  Biso   1.000  O
  O97      1.0000 0.25108  0.31899  0.83658  Biso   1.000  O
  O98      1.0000 0.15303  0.22094  0.93463  Biso   1.000  O
  O99      1.0000 0.62844  0.22231  0.93465  Biso   1.000  O
  O100     1.0000 0.24982  0.60351  0.83778  Biso   1.000  O
  O101     1.0000 0.15316  0.70017  0.93444  Biso   1.000  O
  O102     1.0000 0.53098  0.32019  0.83678  Biso   1.000  O
  O103     1.0000 0.15000  0.70117  0.21776  Biso   1.000  O
  O104     1.0000 0.24745  0.60330  0.31563  Biso   1.000  O
  O105     1.0000 0.15184  0.94104  0.21593  Biso   1.000  O
