data_image0
_cell_length_a       18.1424
_cell_length_b       18.1424
_cell_length_c       18.1424
_cell_angle_alpha    60
_cell_angle_beta     60
_cell_angle_gamma    60

_symmetry_space_group_name_H-M    "P 1"
_symmetry_int_tables_number       1

loop_
  _symmetry_equiv_pos_as_xyz
  'x, y, z'

loop_
  _atom_site_label
  _atom_site_occupancy
  _atom_site_fract_x
  _atom_site_fract_y
  _atom_site_fract_z
  _atom_site_thermal_displace_type
  _atom_site_B_iso_or_equiv
  _atom_site_type_symbol
  C1       1.0000 0.79369  0.79368  0.61895  Biso   1.000  C
  C2       1.0000 0.79369  0.79368  0.79368  Biso   1.000  C
  C3       1.0000 0.61896  0.79368  0.79368  Biso   1.000  C
  C4       1.0000 0.79369  0.61895  0.79368  Biso   1.000  C
  C5       1.0000 0.20631  0.20632  0.38105  Biso   1.000  C
  C6       1.0000 0.20631  0.20632  0.20632  Biso   1.000  C
  C7       1.0000 0.20631  0.38105  0.20632  Biso   1.000  C
  C8       1.0000 0.38104  0.20632  0.20632  Biso   1.000  C
  C9       1.0000 0.65590  0.95550  0.43310  Biso   1.000  C
  C10      1.0000 0.95550  0.65590  0.95550  Biso   1.000  C
  C11      1.0000 0.43310  0.95550  0.65590  Biso   1.000  C
  C12      1.0000 0.95550  0.43310  0.95550  Biso   1.000  C
  C13      1.0000 0.65590  0.43310  0.95550  Biso   1.000  C
  C14      1.0000 0.95550  0.95550  0.43310  Biso   1.000  C
  C15      1.0000 0.43310  0.65590  0.95550  Biso   1.000  C
  C16      1.0000 0.95550  0.95550  0.65590  Biso   1.000  C
  C17      1.0000 0.65590  0.95550  0.95550  Biso   1.000  C
  C18      1.0000 0.95550  0.43310  0.65590  Biso   1.000  C
  C19      1.0000 0.43310  0.95550  0.95550  Biso   1.000  C
  C20      1.0000 0.95550  0.65590  0.43310  Biso   1.000  C
  C21      1.0000 0.04450  0.34410  0.56690  Biso   1.000  C
  C22      1.0000 0.34410  0.04450  0.04450  Biso   1.000  C
  C23      1.0000 0.04450  0.56690  0.34410  Biso   1.000  C
  C24      1.0000 0.56690  0.04450  0.04450  Biso   1.000  C
  C25      1.0000 0.56690  0.34410  0.04450  Biso   1.000  C
  C26      1.0000 0.04450  0.04450  0.56690  Biso   1.000  C
  C27      1.0000 0.34410  0.56690  0.04450  Biso   1.000  C
  C28      1.0000 0.04450  0.04450  0.34410  Biso   1.000  C
  C29      1.0000 0.04450  0.34410  0.04450  Biso   1.000  C
  C30      1.0000 0.56690  0.04450  0.34410  Biso   1.000  C
  C31      1.0000 0.04450  0.56690  0.04450  Biso   1.000  C
  C32      1.0000 0.34410  0.04450  0.56690  Biso   1.000  C
  C33      1.0000 0.59211  0.97397  0.45995  Biso   1.000  C
  C34      1.0000 0.97397  0.59211  0.97397  Biso   1.000  C
  C35      1.0000 0.45995  0.97397  0.59211  Biso   1.000  C
  C36      1.0000 0.97397  0.45995  0.97397  Biso   1.000  C
  C37      1.0000 0.59211  0.45995  0.97397  Biso   1.000  C
  C38      1.0000 0.97397  0.97397  0.45995  Biso   1.000  C
  C39      1.0000 0.45995  0.59211  0.97397  Biso   1.000  C
  C40      1.0000 0.97397  0.97397  0.59211  Biso   1.000  C
  C41      1.0000 0.59211  0.97397  0.97397  Biso   1.000  C
  C42      1.0000 0.97397  0.45995  0.59211  Biso   1.000  C
  C43      1.0000 0.45995  0.97397  0.97397  Biso   1.000  C
  C44      1.0000 0.97397  0.59211  0.45995  Biso   1.000  C
  C45      1.0000 0.02603  0.40789  0.54005  Biso   1.000  C
  C46      1.0000 0.40789  0.02603  0.02603  Biso   1.000  C
  C47      1.0000 0.02603  0.54005  0.40789  Biso   1.000  C
  C48      1.0000 0.54005  0.02603  0.02603  Biso   1.000  C
  C49      1.0000 0.54005  0.40789  0.02603  Biso   1.000  C
  C50      1.0000 0.02603  0.02603  0.54005  Biso   1.000  C
  C51      1.0000 0.40789  0.54005  0.02603  Biso   1.000  C
  C52      1.0000 0.02603  0.02603  0.40789  Biso   1.000  C
  C53      1.0000 0.02603  0.40789  0.02603  Biso   1.000  C
  C54      1.0000 0.54005  0.02603  0.40789  Biso   1.000  C
  C55      1.0000 0.02603  0.54005  0.02603  Biso   1.000  C
  C56      1.0000 0.40789  0.02603  0.54005  Biso   1.000  C
  C57      1.0000 0.55320  0.94680  0.55320  Biso   1.000  C
  C58      1.0000 0.61160  0.88840  0.61160  Biso   1.000  C
  C59      1.0000 0.94680  0.55320  0.94680  Biso   1.000  C
  C60      1.0000 0.88840  0.61160  0.88840  Biso   1.000  C
  C61      1.0000 0.55320  0.55320  0.94680  Biso   1.000  C
  C62      1.0000 0.61160  0.61160  0.88840  Biso   1.000  C
  C63      1.0000 0.94680  0.94680  0.55320  Biso   1.000  C
  C64      1.0000 0.88840  0.88840  0.61160  Biso   1.000  C
  C65      1.0000 0.55320  0.94680  0.94680  Biso   1.000  C
  C66      1.0000 0.61160  0.88840  0.88840  Biso   1.000  C
  C67      1.0000 0.94680  0.55320  0.55320  Biso   1.000  C
  C68      1.0000 0.88840  0.61160  0.61160  Biso   1.000  C
  C69      1.0000 0.05320  0.44680  0.44680  Biso   1.000  C
  C70      1.0000 0.11160  0.38840  0.38840  Biso   1.000  C
  C71      1.0000 0.44680  0.05320  0.05320  Biso   1.000  C
  C72      1.0000 0.38840  0.11160  0.11160  Biso   1.000  C
  C73      1.0000 0.44680  0.44680  0.05320  Biso   1.000  C
  C74      1.0000 0.38840  0.38840  0.11160  Biso   1.000  C
  C75      1.0000 0.05320  0.05320  0.44680  Biso   1.000  C
  C76      1.0000 0.11160  0.11160  0.38840  Biso   1.000  C
  C77      1.0000 0.05320  0.44680  0.05320  Biso   1.000  C
  C78      1.0000 0.11160  0.38840  0.11160  Biso   1.000  C
  C79      1.0000 0.44680  0.05320  0.44680  Biso   1.000  C
  C80      1.0000 0.38840  0.11160  0.38840  Biso   1.000  C
  C81      1.0000 0.75000  0.75000  0.75000  Biso   1.000  C
  C82      1.0000 0.25000  0.25000  0.25000  Biso   1.000  C
  C83      1.0000 0.69809  0.86635  0.56921  Biso   1.000  C
  C84      1.0000 0.86635  0.69809  0.86635  Biso   1.000  C
  C85      1.0000 0.56921  0.86635  0.69809  Biso   1.000  C
  C86      1.0000 0.86635  0.56921  0.86635  Biso   1.000  C
  C87      1.0000 0.69809  0.56921  0.86635  Biso   1.000  C
  C88      1.0000 0.86635  0.86635  0.56921  Biso   1.000  C
  C89      1.0000 0.56921  0.69809  0.86635  Biso   1.000  C
  C90      1.0000 0.86635  0.86635  0.69809  Biso   1.000  C
  C91      1.0000 0.69809  0.86635  0.86635  Biso   1.000  C
  C92      1.0000 0.86635  0.56921  0.69809  Biso   1.000  C
  C93      1.0000 0.56921  0.86635  0.86635  Biso   1.000  C
  C94      1.0000 0.86635  0.69809  0.56921  Biso   1.000  C
  C95      1.0000 0.13365  0.30191  0.43079  Biso   1.000  C
  C96      1.0000 0.30191  0.13365  0.13365  Biso   1.000  C
  C97      1.0000 0.13365  0.43079  0.30191  Biso   1.000  C
  C98      1.0000 0.43079  0.13365  0.13365  Biso   1.000  C
  C99      1.0000 0.43079  0.30191  0.13365  Biso   1.000  C
  C100     1.0000 0.13365  0.13365  0.43079  Biso   1.000  C
  C101     1.0000 0.30191  0.43079  0.13365  Biso   1.000  C
  C102     1.0000 0.13365  0.13365  0.30191  Biso   1.000  C
  C103     1.0000 0.13365  0.30191  0.13365  Biso   1.000  C
  C104     1.0000 0.43079  0.13365  0.30191  Biso   1.000  C
  C105     1.0000 0.13365  0.43079  0.13365  Biso   1.000  C
  C106     1.0000 0.30191  0.13365  0.43079  Biso   1.000  C
  O1       1.0000 0.40775  0.56124  0.60757  Biso   1.000  O
  O2       1.0000 0.58292  0.56124  0.43240  Biso   1.000  O
  O3       1.0000 0.40775  0.56124  0.43240  Biso   1.000  O
  O4       1.0000 0.40775  0.73640  0.43240  Biso   1.000  O
  O5       1.0000 0.00307  0.14625  0.84224  Biso   1.000  O
  O6       1.0000 0.82790  0.14625  0.01741  Biso   1.000  O
  O7       1.0000 0.00307  0.97108  0.01741  Biso   1.000  O
  O8       1.0000 0.00307  0.14625  0.01741  Biso   1.000  O
  O9       1.0000 0.55561  0.39797  0.78625  Biso   1.000  O
  O10      1.0000 0.76676  0.39797  0.57510  Biso   1.000  O
  O11      1.0000 0.24964  0.70394  0.26913  Biso   1.000  O
  O12      1.0000 0.24964  0.91509  0.26913  Biso   1.000  O
  O13      1.0000 0.24964  0.91509  0.57510  Biso   1.000  O
  O14      1.0000 0.24964  0.70394  0.78625  Biso   1.000  O
  O15      1.0000 0.55561  0.39797  0.26913  Biso   1.000  O
  O16      1.0000 0.76676  0.39797  0.26913  Biso   1.000  O
  O17      1.0000 0.76676  0.70394  0.26913  Biso   1.000  O
  O18      1.0000 0.55561  0.91509  0.26913  Biso   1.000  O
  O19      1.0000 0.24964  0.39797  0.57510  Biso   1.000  O
  O20      1.0000 0.24964  0.39797  0.78625  Biso   1.000  O
  O21      1.0000 0.85521  0.30952  0.66355  Biso   1.000  O
  O22      1.0000 0.64406  0.30952  0.87471  Biso   1.000  O
  O23      1.0000 0.16118  0.79239  0.18068  Biso   1.000  O
  O24      1.0000 0.16118  0.00355  0.18068  Biso   1.000  O
  O25      1.0000 0.16118  0.30952  0.87471  Biso   1.000  O
  O26      1.0000 0.16118  0.30952  0.66355  Biso   1.000  O
  O27      1.0000 0.85521  0.79239  0.18068  Biso   1.000  O
  O28      1.0000 0.64406  0.00355  0.18068  Biso   1.000  O
  O29      1.0000 0.64406  0.30952  0.18068  Biso   1.000  O
  O30      1.0000 0.85521  0.30952  0.18068  Biso   1.000  O
  O31      1.0000 0.16118  0.79239  0.87471  Biso   1.000  O
  O32      1.0000 0.16118  0.00355  0.66355  Biso   1.000  O
  O33      1.0000 0.61792  0.38028  0.75932  Biso   1.000  O
  O34      1.0000 0.73982  0.38028  0.63742  Biso   1.000  O
  O35      1.0000 0.23195  0.76626  0.25144  Biso   1.000  O
  O36      1.0000 0.23195  0.88816  0.25144  Biso   1.000  O
  O37      1.0000 0.23195  0.88816  0.63742  Biso   1.000  O
  O38      1.0000 0.23195  0.76626  0.75932  Biso   1.000  O
  O39      1.0000 0.61792  0.38028  0.25144  Biso   1.000  O
  O40      1.0000 0.73982  0.38028  0.25144  Biso   1.000  O
  O41      1.0000 0.73982  0.76626  0.25144  Biso   1.000  O
  O42      1.0000 0.61792  0.88816  0.25144  Biso   1.000  O
  O43      1.0000 0.23195  0.38028  0.63742  Biso   1.000  O
  O44      1.0000 0.23195  0.38028  0.75932  Biso   1.000  O
  O45      1.0000 0.79289  0.32721  0.69049  Biso   1.000  O
  O46      1.0000 0.67100  0.32721  0.81239  Biso   1.000  O
  O47      1.0000 0.17887  0.81933  0.19837  Biso   1.000  O
  O48      1.0000 0.17887  0.94123  0.19837  Biso   1.000  O
  O49      1.0000 0.17887  0.32721  0.81239  Biso   1.000  O
  O50      1.0000 0.17887  0.32721  0.69049  Biso   1.000  O
  O51      1.0000 0.79289  0.81933  0.19837  Biso   1.000  O
  O52      1.0000 0.67100  0.94123  0.19837  Biso   1.000  O
  O53      1.0000 0.67100  0.32721  0.19837  Biso   1.000  O
  O54      1.0000 0.79289  0.32721  0.19837  Biso   1.000  O
  O55      1.0000 0.17887  0.81933  0.81239  Biso   1.000  O
  O56      1.0000 0.17887  0.94123  0.69049  Biso   1.000  O
  O57      1.0000 0.59086  0.46572  0.61551  Biso   1.000  O
  O58      1.0000 0.64886  0.40772  0.67350  Biso   1.000  O
  O59      1.0000 0.31223  0.74435  0.33688  Biso   1.000  O
  O60      1.0000 0.25423  0.80234  0.27888  Biso   1.000  O
  O61      1.0000 0.31223  0.74435  0.61551  Biso   1.000  O
  O62      1.0000 0.25423  0.80234  0.67350  Biso   1.000  O
  O63      1.0000 0.59086  0.46572  0.33688  Biso   1.000  O
  O64      1.0000 0.64886  0.40772  0.27888  Biso   1.000  O
  O65      1.0000 0.59086  0.74435  0.33688  Biso   1.000  O
  O66      1.0000 0.64886  0.80234  0.27888  Biso   1.000  O
  O67      1.0000 0.31223  0.46572  0.61551  Biso   1.000  O
  O68      1.0000 0.25423  0.40772  0.67350  Biso   1.000  O
  O69      1.0000 0.81996  0.24177  0.83430  Biso   1.000  O
  O70      1.0000 0.76196  0.29977  0.77630  Biso   1.000  O
  O71      1.0000 0.09859  0.96314  0.11293  Biso   1.000  O
  O72      1.0000 0.15659  0.90514  0.17093  Biso   1.000  O
  O73      1.0000 0.09859  0.24177  0.83430  Biso   1.000  O
  O74      1.0000 0.15659  0.29977  0.77630  Biso   1.000  O
  O75      1.0000 0.81996  0.96314  0.11293  Biso   1.000  O
  O76      1.0000 0.76196  0.90514  0.17093  Biso   1.000  O
  O77      1.0000 0.81996  0.24177  0.11293  Biso   1.000  O
  O78      1.0000 0.76196  0.29977  0.17093  Biso   1.000  O
  O79      1.0000 0.09859  0.96314  0.83430  Biso   1.000  O
  O80      1.0000 0.15659  0.90514  0.77630  Biso   1.000  O
  O81      1.0000 0.45154  0.60503  0.47619  Biso   1.000  O
  O82      1.0000 0.95927  0.10245  0.97362  Biso   1.000  O
  O83      1.0000 0.50716  0.48838  0.65387  Biso   1.000  O
  O84      1.0000 0.62923  0.48838  0.53181  Biso   1.000  O
  O85      1.0000 0.33490  0.66065  0.35954  Biso   1.000  O
  O86      1.0000 0.33490  0.78271  0.35954  Biso   1.000  O
  O87      1.0000 0.33490  0.78271  0.53181  Biso   1.000  O
  O88      1.0000 0.33490  0.66065  0.65387  Biso   1.000  O
  O89      1.0000 0.50716  0.48838  0.35954  Biso   1.000  O
  O90      1.0000 0.62923  0.48838  0.35954  Biso   1.000  O
  O91      1.0000 0.62923  0.66065  0.35954  Biso   1.000  O
  O92      1.0000 0.50716  0.78271  0.35954  Biso   1.000  O
  O93      1.0000 0.33490  0.48838  0.53181  Biso   1.000  O
  O94      1.0000 0.33490  0.48838  0.65387  Biso   1.000  O
  O95      1.0000 0.90366  0.21910  0.79593  Biso   1.000  O
  O96      1.0000 0.78159  0.21910  0.91800  Biso   1.000  O
  O97      1.0000 0.07592  0.92477  0.09026  Biso   1.000  O
  O98      1.0000 0.07592  0.04684  0.09026  Biso   1.000  O
  O99      1.0000 0.07592  0.21910  0.91800  Biso   1.000  O
  O100     1.0000 0.07592  0.21910  0.79593  Biso   1.000  O
  O101     1.0000 0.90366  0.92477  0.09026  Biso   1.000  O
  O102     1.0000 0.78159  0.04684  0.09026  Biso   1.000  O
  O103     1.0000 0.78159  0.21910  0.09026  Biso   1.000  O
  O104     1.0000 0.90366  0.21910  0.09026  Biso   1.000  O
  O105     1.0000 0.07592  0.92477  0.91800  Biso   1.000  O
