data_image0
_cell_length_a       18.1424
_cell_length_b       18.1424
_cell_length_c       18.1424
_cell_angle_alpha    60
_cell_angle_beta     60
_cell_angle_gamma    60

_symmetry_space_group_name_H-M    "P 1"
_symmetry_int_tables_number       1

loop_
  _symmetry_equiv_pos_as_xyz
  'x, y, z'

loop_
  _atom_site_label
  _atom_site_occupancy
  _atom_site_fract_x
  _atom_site_fract_y
  _atom_site_fract_z
  _atom_site_thermal_displace_type
  _atom_site_B_iso_or_equiv
  _atom_site_type_symbol
  C1       1.0000 0.79369  0.79368  0.61895  Biso   1.000  C
  C2       1.0000 0.79369  0.79368  0.79368  Biso   1.000  C
  C3       1.0000 0.61896  0.79368  0.79368  Biso   1.000  C
  C4       1.0000 0.79369  0.61895  0.79368  Biso   1.000  C
  C5       1.0000 0.20631  0.20632  0.38105  Biso   1.000  C
  C6       1.0000 0.20631  0.20632  0.20632  Biso   1.000  C
  C7       1.0000 0.20631  0.38105  0.20632  Biso   1.000  C
  C8       1.0000 0.38104  0.20632  0.20632  Biso   1.000  C
  C9       1.0000 0.65590  0.95550  0.43310  Biso   1.000  C
  C10      1.0000 0.95550  0.65590  0.95550  Biso   1.000  C
  C11      1.0000 0.43310  0.95550  0.65590  Biso   1.000  C
  C12      1.0000 0.95550  0.43310  0.95550  Biso   1.000  C
  C13      1.0000 0.65590  0.43310  0.95550  Biso   1.000  C
  C14      1.0000 0.95550  0.95550  0.43310  Biso   1.000  C
  C15      1.0000 0.43310  0.65590  0.95550  Biso   1.000  C
  C16      1.0000 0.95550  0.95550  0.65590  Biso   1.000  C
  C17      1.0000 0.65590  0.95550  0.95550  Biso   1.000  C
  C18      1.0000 0.95550  0.43310  0.65590  Biso   1.000  C
  C19      1.0000 0.43310  0.95550  0.95550  Biso   1.000  C
  C20      1.0000 0.95550  0.65590  0.43310  Biso   1.000  C
  C21      1.0000 0.04450  0.34410  0.56690  Biso   1.000  C
  C22      1.0000 0.34410  0.04450  0.04450  Biso   1.000  C
  C23      1.0000 0.04450  0.56690  0.34410  Biso   1.000  C
  C24      1.0000 0.56690  0.04450  0.04450  Biso   1.000  C
  C25      1.0000 0.56690  0.34410  0.04450  Biso   1.000  C
  C26      1.0000 0.04450  0.04450  0.56690  Biso   1.000  C
  C27      1.0000 0.34410  0.56690  0.04450  Biso   1.000  C
  C28      1.0000 0.04450  0.04450  0.34410  Biso   1.000  C
  C29      1.0000 0.04450  0.34410  0.04450  Biso   1.000  C
  C30      1.0000 0.56690  0.04450  0.34410  Biso   1.000  C
  C31      1.0000 0.04450  0.56690  0.04450  Biso   1.000  C
  C32      1.0000 0.34410  0.04450  0.56690  Biso   1.000  C
  C33      1.0000 0.59211  0.97397  0.45995  Biso   1.000  C
  C34      1.0000 0.97397  0.59211  0.97397  Biso   1.000  C
  C35      1.0000 0.45995  0.97397  0.59211  Biso   1.000  C
  C36      1.0000 0.97397  0.45995  0.97397  Biso   1.000  C
  C37      1.0000 0.59211  0.45995  0.97397  Biso   1.000  C
  C38      1.0000 0.97397  0.97397  0.45995  Biso   1.000  C
  C39      1.0000 0.45995  0.59211  0.97397  Biso   1.000  C
  C40      1.0000 0.97397  0.97397  0.59211  Biso   1.000  C
  C41      1.0000 0.59211  0.97397  0.97397  Biso   1.000  C
  C42      1.0000 0.97397  0.45995  0.59211  Biso   1.000  C
  C43      1.0000 0.45995  0.97397  0.97397  Biso   1.000  C
  C44      1.0000 0.97397  0.59211  0.45995  Biso   1.000  C
  C45      1.0000 0.02603  0.40789  0.54005  Biso   1.000  C
  C46      1.0000 0.40789  0.02603  0.02603  Biso   1.000  C
  C47      1.0000 0.02603  0.54005  0.40789  Biso   1.000  C
  C48      1.0000 0.54005  0.02603  0.02603  Biso   1.000  C
  C49      1.0000 0.54005  0.40789  0.02603  Biso   1.000  C
  C50      1.0000 0.02603  0.02603  0.54005  Biso   1.000  C
  C51      1.0000 0.40789  0.54005  0.02603  Biso   1.000  C
  C52      1.0000 0.02603  0.02603  0.40789  Biso   1.000  C
  C53      1.0000 0.02603  0.40789  0.02603  Biso   1.000  C
  C54      1.0000 0.54005  0.02603  0.40789  Biso   1.000  C
  C55      1.0000 0.02603  0.54005  0.02603  Biso   1.000  C
  C56      1.0000 0.40789  0.02603  0.54005  Biso   1.000  C
  C57      1.0000 0.55320  0.94680  0.55320  Biso   1.000  C
  C58      1.0000 0.61160  0.88840  0.61160  Biso   1.000  C
  C59      1.0000 0.94680  0.55320  0.94680  Biso   1.000  C
  C60      1.0000 0.88840  0.61160  0.88840  Biso   1.000  C
  C61      1.0000 0.55320  0.55320  0.94680  Biso   1.000  C
  C62      1.0000 0.61160  0.61160  0.88840  Biso   1.000  C
  C63      1.0000 0.94680  0.94680  0.55320  Biso   1.000  C
  C64      1.0000 0.88840  0.88840  0.61160  Biso   1.000  C
  C65      1.0000 0.55320  0.94680  0.94680  Biso   1.000  C
  C66      1.0000 0.61160  0.88840  0.88840  Biso   1.000  C
  C67      1.0000 0.94680  0.55320  0.55320  Biso   1.000  C
  C68      1.0000 0.88840  0.61160  0.61160  Biso   1.000  C
  C69      1.0000 0.05320  0.44680  0.44680  Biso   1.000  C
  C70      1.0000 0.11160  0.38840  0.38840  Biso   1.000  C
  C71      1.0000 0.44680  0.05320  0.05320  Biso   1.000  C
  C72      1.0000 0.38840  0.11160  0.11160  Biso   1.000  C
  C73      1.0000 0.44680  0.44680  0.05320  Biso   1.000  C
  C74      1.0000 0.38840  0.38840  0.11160  Biso   1.000  C
  C75      1.0000 0.05320  0.05320  0.44680  Biso   1.000  C
  C76      1.0000 0.11160  0.11160  0.38840  Biso   1.000  C
  C77      1.0000 0.05320  0.44680  0.05320  Biso   1.000  C
  C78      1.0000 0.11160  0.38840  0.11160  Biso   1.000  C
  C79      1.0000 0.44680  0.05320  0.44680  Biso   1.000  C
  C80      1.0000 0.38840  0.11160  0.38840  Biso   1.000  C
  C81      1.0000 0.75000  0.75000  0.75000  Biso   1.000  C
  C82      1.0000 0.25000  0.25000  0.25000  Biso   1.000  C
  C83      1.0000 0.69809  0.86635  0.56921  Biso   1.000  C
  C84      1.0000 0.86635  0.69809  0.86635  Biso   1.000  C
  C85      1.0000 0.56921  0.86635  0.69809  Biso   1.000  C
  C86      1.0000 0.86635  0.56921  0.86635  Biso   1.000  C
  C87      1.0000 0.69809  0.56921  0.86635  Biso   1.000  C
  C88      1.0000 0.86635  0.86635  0.56921  Biso   1.000  C
  C89      1.0000 0.56921  0.69809  0.86635  Biso   1.000  C
  C90      1.0000 0.86635  0.86635  0.69809  Biso   1.000  C
  C91      1.0000 0.69809  0.86635  0.86635  Biso   1.000  C
  C92      1.0000 0.86635  0.56921  0.69809  Biso   1.000  C
  C93      1.0000 0.56921  0.86635  0.86635  Biso   1.000  C
  C94      1.0000 0.86635  0.69809  0.56921  Biso   1.000  C
  C95      1.0000 0.13365  0.30191  0.43079  Biso   1.000  C
  C96      1.0000 0.30191  0.13365  0.13365  Biso   1.000  C
  C97      1.0000 0.13365  0.43079  0.30191  Biso   1.000  C
  C98      1.0000 0.43079  0.13365  0.13365  Biso   1.000  C
  C99      1.0000 0.43079  0.30191  0.13365  Biso   1.000  C
  C100     1.0000 0.13365  0.13365  0.43079  Biso   1.000  C
  C101     1.0000 0.30191  0.43079  0.13365  Biso   1.000  C
  C102     1.0000 0.13365  0.13365  0.30191  Biso   1.000  C
  C103     1.0000 0.13365  0.30191  0.13365  Biso   1.000  C
  C104     1.0000 0.43079  0.13365  0.30191  Biso   1.000  C
  C105     1.0000 0.13365  0.43079  0.13365  Biso   1.000  C
  C106     1.0000 0.30191  0.13365  0.43079  Biso   1.000  C
  O1       1.0000 0.00000  0.00000  0.00000  Biso   1.000  O
  O2       1.0000 0.00000  0.82578  0.00000  Biso   1.000  O
  O3       1.0000 0.00000  0.00000  0.82578  Biso   1.000  O
  O4       1.0000 0.82578  1.00000  0.00000  Biso   1.000  O
  O5       1.0000 0.40483  0.58980  0.41558  Biso   1.000  O
  O6       1.0000 0.40483  0.41558  0.41558  Biso   1.000  O
  O7       1.0000 0.40483  0.41558  0.58980  Biso   1.000  O
  O8       1.0000 0.57905  0.41558  0.41558  Biso   1.000  O
  O9       1.0000 0.17984  0.78975  0.17984  Biso   1.000  O
  O10      1.0000 0.17984  0.67636  0.17984  Biso   1.000  O
  O11      1.0000 0.78975  0.17984  0.67636  Biso   1.000  O
  O12      1.0000 0.67636  0.17984  0.78975  Biso   1.000  O
  O13      1.0000 0.78975  0.17984  0.17984  Biso   1.000  O
  O14      1.0000 0.67636  0.17984  0.17984  Biso   1.000  O
  O15      1.0000 0.17984  0.67636  0.78975  Biso   1.000  O
  O16      1.0000 0.17984  0.78975  0.67636  Biso   1.000  O
  O17      1.0000 0.17984  0.17984  0.78975  Biso   1.000  O
  O18      1.0000 0.17984  0.17984  0.67636  Biso   1.000  O
  O19      1.0000 0.67636  0.78975  0.17984  Biso   1.000  O
  O20      1.0000 0.78975  0.67636  0.17984  Biso   1.000  O
  O21      1.0000 0.22499  0.73922  0.23574  Biso   1.000  O
  O22      1.0000 0.22499  0.62583  0.23574  Biso   1.000  O
  O23      1.0000 0.61508  0.23574  0.73922  Biso   1.000  O
  O24      1.0000 0.72847  0.23574  0.62583  Biso   1.000  O
  O25      1.0000 0.61508  0.73922  0.23574  Biso   1.000  O
  O26      1.0000 0.72847  0.62583  0.23574  Biso   1.000  O
  O27      1.0000 0.22499  0.23574  0.62583  Biso   1.000  O
  O28      1.0000 0.22499  0.23574  0.73922  Biso   1.000  O
  O29      1.0000 0.22499  0.73922  0.62583  Biso   1.000  O
  O30      1.0000 0.22499  0.62583  0.73922  Biso   1.000  O
  O31      1.0000 0.72847  0.23574  0.23574  Biso   1.000  O
  O32      1.0000 0.61508  0.23574  0.23574  Biso   1.000  O
  O33      1.0000 0.15099  0.76190  0.15099  Biso   1.000  O
  O34      1.0000 0.09539  0.81750  0.09539  Biso   1.000  O
  O35      1.0000 0.76190  0.15099  0.76190  Biso   1.000  O
  O36      1.0000 0.81750  0.09539  0.81750  Biso   1.000  O
  O37      1.0000 0.76190  0.15099  0.15099  Biso   1.000  O
  O38      1.0000 0.81750  0.09539  0.09539  Biso   1.000  O
  O39      1.0000 0.15099  0.76190  0.76190  Biso   1.000  O
  O40      1.0000 0.09539  0.81750  0.81750  Biso   1.000  O
  O41      1.0000 0.15099  0.15099  0.76190  Biso   1.000  O
  O42      1.0000 0.09539  0.09539  0.81750  Biso   1.000  O
  O43      1.0000 0.76190  0.76190  0.15099  Biso   1.000  O
  O44      1.0000 0.81750  0.81750  0.09539  Biso   1.000  O
  O45      1.0000 0.25384  0.65368  0.26458  Biso   1.000  O
  O46      1.0000 0.30943  0.59808  0.32018  Biso   1.000  O
  O47      1.0000 0.64293  0.26458  0.65368  Biso   1.000  O
  O48      1.0000 0.58733  0.32018  0.59808  Biso   1.000  O
  O49      1.0000 0.64293  0.65368  0.26458  Biso   1.000  O
  O50      1.0000 0.58733  0.59808  0.32018  Biso   1.000  O
  O51      1.0000 0.25384  0.26458  0.65368  Biso   1.000  O
  O52      1.0000 0.30944  0.32018  0.59808  Biso   1.000  O
  O53      1.0000 0.25384  0.65368  0.65368  Biso   1.000  O
  O54      1.0000 0.30943  0.59808  0.59808  Biso   1.000  O
  O55      1.0000 0.64293  0.26458  0.26458  Biso   1.000  O
  O56      1.0000 0.58733  0.32018  0.32018  Biso   1.000  O
  O57      1.0000 0.95645  0.95645  0.95645  Biso   1.000  O
  O58      1.0000 0.44838  0.45913  0.45913  Biso   1.000  O
  O59      1.0000 0.07152  0.90085  0.07152  Biso   1.000  O
  O60      1.0000 0.07152  0.78189  0.07152  Biso   1.000  O
  O61      1.0000 0.90085  0.07152  0.78189  Biso   1.000  O
  O62      1.0000 0.78189  0.07152  0.90085  Biso   1.000  O
  O63      1.0000 0.90085  0.07152  0.07152  Biso   1.000  O
  O64      1.0000 0.78189  0.07152  0.07152  Biso   1.000  O
  O65      1.0000 0.07152  0.78189  0.90085  Biso   1.000  O
  O66      1.0000 0.07152  0.90085  0.78189  Biso   1.000  O
  O67      1.0000 0.07152  0.07152  0.90085  Biso   1.000  O
  O68      1.0000 0.07152  0.07152  0.78189  Biso   1.000  O
  O69      1.0000 0.78189  0.90085  0.07152  Biso   1.000  O
  O70      1.0000 0.90085  0.78189  0.07152  Biso   1.000  O
  O71      1.0000 0.33331  0.63369  0.34405  Biso   1.000  O
  O72      1.0000 0.33331  0.51473  0.34405  Biso   1.000  O
  O73      1.0000 0.50398  0.34405  0.63369  Biso   1.000  O
  O74      1.0000 0.62294  0.34405  0.51473  Biso   1.000  O
  O75      1.0000 0.50398  0.63369  0.34405  Biso   1.000  O
  O76      1.0000 0.62294  0.51473  0.34405  Biso   1.000  O
  O77      1.0000 0.33331  0.34405  0.51473  Biso   1.000  O
  O78      1.0000 0.33331  0.34405  0.63369  Biso   1.000  O
  O79      1.0000 0.33331  0.63369  0.51473  Biso   1.000  O
  O80      1.0000 0.33331  0.51473  0.63369  Biso   1.000  O
  O81      1.0000 0.62294  0.34405  0.34405  Biso   1.000  O
  O82      1.0000 0.50398  0.34405  0.34405  Biso   1.000  O
  O83      1.0000 0.15763  0.86638  0.15762  Biso   1.000  O
  O84      1.0000 0.15763  0.64415  0.15762  Biso   1.000  O
  O85      1.0000 0.86639  0.15762  0.64415  Biso   1.000  O
  O86      1.0000 0.64416  0.15762  0.86638  Biso   1.000  O
  O87      1.0000 0.64416  0.15762  0.15762  Biso   1.000  O
  O88      1.0000 0.15763  0.64415  0.86638  Biso   1.000  O
  O89      1.0000 0.15763  0.86638  0.64415  Biso   1.000  O
  O90      1.0000 0.15763  0.15762  0.86638  Biso   1.000  O
  O91      1.0000 0.15763  0.15762  0.64415  Biso   1.000  O
  O92      1.0000 0.64416  0.86638  0.15762  Biso   1.000  O
  O93      1.0000 0.86639  0.64415  0.15762  Biso   1.000  O
  O94      1.0000 0.24720  0.77143  0.25796  Biso   1.000  O
  O95      1.0000 0.24720  0.54920  0.25796  Biso   1.000  O
  O96      1.0000 0.53844  0.25796  0.77142  Biso   1.000  O
  O97      1.0000 0.76067  0.25796  0.54920  Biso   1.000  O
  O98      1.0000 0.53844  0.77143  0.25796  Biso   1.000  O
  O99      1.0000 0.76067  0.54920  0.25796  Biso   1.000  O
  O100     1.0000 0.24720  0.25796  0.54920  Biso   1.000  O
  O101     1.0000 0.24720  0.25796  0.77142  Biso   1.000  O
  O102     1.0000 0.24720  0.54920  0.77142  Biso   1.000  O
  O103     1.0000 0.76067  0.25796  0.25796  Biso   1.000  O
  O104     1.0000 0.53844  0.25796  0.25796  Biso   1.000  O
  O105     1.0000 0.24720  0.77143  0.54920  Biso   1.000  O
