data_image0
_cell_length_a       18.3014
_cell_length_b       18.3014
_cell_length_c       18.3014
_cell_angle_alpha    60
_cell_angle_beta     60
_cell_angle_gamma    60

_symmetry_space_group_name_H-M    "P 1"
_symmetry_int_tables_number       1

loop_
  _symmetry_equiv_pos_as_xyz
  'x, y, z'

loop_
  _atom_site_label
  _atom_site_occupancy
  _atom_site_fract_x
  _atom_site_fract_y
  _atom_site_fract_z
  _atom_site_thermal_displace_type
  _atom_site_B_iso_or_equiv
  _atom_site_type_symbol
  Zn1      1.0000 0.20640  0.38080  0.20640  Biso   1.000  Zn
  Zn2      1.0000 0.38080  0.20640  0.20640  Biso   1.000  Zn
  Zn3      1.0000 0.20640  0.20640  0.20640  Biso   1.000  Zn
  Zn4      1.0000 0.20640  0.20640  0.38080  Biso   1.000  Zn
  Zn5      1.0000 0.61920  0.79360  0.79360  Biso   1.000  Zn
  Zn6      1.0000 0.79360  0.61920  0.79360  Biso   1.000  Zn
  Zn7      1.0000 0.79360  0.79360  0.79360  Biso   1.000  Zn
  Zn8      1.0000 0.79360  0.79360  0.61920  Biso   1.000  Zn
  H1       1.0000 0.04850  0.56570  0.04850  Biso   1.000  H
  H2       1.0000 0.56570  0.04850  0.33730  Biso   1.000  H
  H3       1.0000 0.04850  0.33730  0.04850  Biso   1.000  H
  H4       1.0000 0.33730  0.04850  0.56570  Biso   1.000  H
  H5       1.0000 0.04850  0.04850  0.33730  Biso   1.000  H
  H6       1.0000 0.56570  0.33730  0.04850  Biso   1.000  H
  H7       1.0000 0.04850  0.04850  0.56570  Biso   1.000  H
  H8       1.0000 0.33730  0.56570  0.04850  Biso   1.000  H
  H9       1.0000 0.04850  0.33730  0.56570  Biso   1.000  H
  H10      1.0000 0.56570  0.04850  0.04850  Biso   1.000  H
  H11      1.0000 0.04850  0.56570  0.33730  Biso   1.000  H
  H12      1.0000 0.33730  0.04850  0.04850  Biso   1.000  H
  H13      1.0000 0.43430  0.95150  0.95150  Biso   1.000  H
  H14      1.0000 0.95150  0.43430  0.66270  Biso   1.000  H
  H15      1.0000 0.66270  0.95150  0.95150  Biso   1.000  H
  H16      1.0000 0.95150  0.66270  0.43430  Biso   1.000  H
  H17      1.0000 0.95150  0.95150  0.66270  Biso   1.000  H
  H18      1.0000 0.66270  0.43430  0.95150  Biso   1.000  H
  H19      1.0000 0.95150  0.95150  0.43430  Biso   1.000  H
  H20      1.0000 0.43430  0.66270  0.95150  Biso   1.000  H
  H21      1.0000 0.66270  0.95150  0.43430  Biso   1.000  H
  H22      1.0000 0.95150  0.43430  0.95150  Biso   1.000  H
  H23      1.0000 0.43430  0.95150  0.66270  Biso   1.000  H
  H24      1.0000 0.95150  0.66270  0.95150  Biso   1.000  H
  C1       1.0000 0.02640  0.53920  0.02640  Biso   1.000  C
  C2       1.0000 0.53920  0.02640  0.40800  Biso   1.000  C
  C3       1.0000 0.02640  0.40800  0.02640  Biso   1.000  C
  C4       1.0000 0.40800  0.02640  0.53920  Biso   1.000  C
  C5       1.0000 0.02640  0.02640  0.40800  Biso   1.000  C
  C6       1.0000 0.53920  0.40800  0.02640  Biso   1.000  C
  C7       1.0000 0.02640  0.02640  0.53920  Biso   1.000  C
  C8       1.0000 0.40800  0.53920  0.02640  Biso   1.000  C
  C9       1.0000 0.02640  0.40800  0.53920  Biso   1.000  C
  C10      1.0000 0.53920  0.02640  0.02640  Biso   1.000  C
  C11      1.0000 0.02640  0.53920  0.40800  Biso   1.000  C
  C12      1.0000 0.40800  0.02640  0.02640  Biso   1.000  C
  C13      1.0000 0.46080  0.97360  0.97360  Biso   1.000  C
  C14      1.0000 0.97360  0.46080  0.59200  Biso   1.000  C
  C15      1.0000 0.59200  0.97360  0.97360  Biso   1.000  C
  C16      1.0000 0.97360  0.59200  0.46080  Biso   1.000  C
  C17      1.0000 0.97360  0.97360  0.59200  Biso   1.000  C
  C18      1.0000 0.59200  0.46080  0.97360  Biso   1.000  C
  C19      1.0000 0.97360  0.97360  0.46080  Biso   1.000  C
  C20      1.0000 0.46080  0.59200  0.97360  Biso   1.000  C
  C21      1.0000 0.59200  0.97360  0.46080  Biso   1.000  C
  C22      1.0000 0.97360  0.46080  0.97360  Biso   1.000  C
  C23      1.0000 0.46080  0.97360  0.59200  Biso   1.000  C
  C24      1.0000 0.97360  0.59200  0.97360  Biso   1.000  C
  C25      1.0000 0.11050  0.38950  0.11050  Biso   1.000  C
  C26      1.0000 0.05430  0.44570  0.05430  Biso   1.000  C
  C27      1.0000 0.38950  0.11050  0.38950  Biso   1.000  C
  C28      1.0000 0.44570  0.05430  0.44570  Biso   1.000  C
  C29      1.0000 0.11050  0.11050  0.38950  Biso   1.000  C
  C30      1.0000 0.05430  0.05430  0.44570  Biso   1.000  C
  C31      1.0000 0.38950  0.38950  0.11050  Biso   1.000  C
  C32      1.0000 0.44570  0.44570  0.05430  Biso   1.000  C
  C33      1.0000 0.11050  0.38950  0.38950  Biso   1.000  C
  C34      1.0000 0.05430  0.44570  0.44570  Biso   1.000  C
  C35      1.0000 0.38950  0.11050  0.11050  Biso   1.000  C
  C36      1.0000 0.44570  0.05430  0.05430  Biso   1.000  C
  C37      1.0000 0.61050  0.88950  0.88950  Biso   1.000  C
  C38      1.0000 0.55430  0.94570  0.94570  Biso   1.000  C
  C39      1.0000 0.88950  0.61050  0.61050  Biso   1.000  C
  C40      1.0000 0.94570  0.55430  0.55430  Biso   1.000  C
  C41      1.0000 0.88950  0.88950  0.61050  Biso   1.000  C
  C42      1.0000 0.94570  0.94570  0.55430  Biso   1.000  C
  C43      1.0000 0.61050  0.61050  0.88950  Biso   1.000  C
  C44      1.0000 0.55430  0.55430  0.94570  Biso   1.000  C
  C45      1.0000 0.61050  0.88950  0.61050  Biso   1.000  C
  C46      1.0000 0.55430  0.94570  0.55430  Biso   1.000  C
  C47      1.0000 0.88950  0.61050  0.88950  Biso   1.000  C
  C48      1.0000 0.94570  0.55430  0.94570  Biso   1.000  C
  O1       1.0000 0.25000  0.25000  0.25000  Biso   1.000  O
  O2       1.0000 0.75000  0.75000  0.75000  Biso   1.000  O
  O3       1.0000 0.13330  0.42830  0.13330  Biso   1.000  O
  O4       1.0000 0.42830  0.13330  0.30510  Biso   1.000  O
  O5       1.0000 0.13330  0.30510  0.13330  Biso   1.000  O
  O6       1.0000 0.30510  0.13330  0.42830  Biso   1.000  O
  O7       1.0000 0.13330  0.13330  0.30510  Biso   1.000  O
  O8       1.0000 0.42830  0.30510  0.13330  Biso   1.000  O
  O9       1.0000 0.13330  0.13330  0.42830  Biso   1.000  O
  O10      1.0000 0.30510  0.42830  0.13330  Biso   1.000  O
  O11      1.0000 0.13330  0.30510  0.42830  Biso   1.000  O
  O12      1.0000 0.42830  0.13330  0.13330  Biso   1.000  O
  O13      1.0000 0.13330  0.42830  0.30510  Biso   1.000  O
  O14      1.0000 0.30510  0.13330  0.13330  Biso   1.000  O
  O15      1.0000 0.57170  0.86670  0.86670  Biso   1.000  O
  O16      1.0000 0.86670  0.57170  0.69490  Biso   1.000  O
  O17      1.0000 0.69490  0.86670  0.86670  Biso   1.000  O
  O18      1.0000 0.86670  0.69490  0.57170  Biso   1.000  O
  O19      1.0000 0.86670  0.86670  0.69490  Biso   1.000  O
  O20      1.0000 0.69490  0.57170  0.86670  Biso   1.000  O
  O21      1.0000 0.86670  0.86670  0.57170  Biso   1.000  O
  O22      1.0000 0.57170  0.69490  0.86670  Biso   1.000  O
  O23      1.0000 0.69490  0.86670  0.57170  Biso   1.000  O
  O24      1.0000 0.86670  0.57170  0.86670  Biso   1.000  O
  O25      1.0000 0.57170  0.86670  0.69490  Biso   1.000  O
  O26      1.0000 0.86670  0.69490  0.86670  Biso   1.000  O
  Zn9      1.0000 0.00000  0.00000  0.00000  Biso   1.000  Zn
  Zn10     1.0000 0.00001  0.99999  0.17371  Biso   1.000  Zn
  Zn11     1.0000 0.82630  0.00000  0.17370  Biso   1.000  Zn
  Zn12     1.0000 0.00001  0.82629  0.17371  Biso   1.000  Zn
  Zn13     1.0000 0.41316  0.41316  0.76057  Biso   1.000  Zn
  Zn14     1.0000 0.41316  0.41316  0.58686  Biso   1.000  Zn
  Zn15     1.0000 0.41317  0.58686  0.58686  Biso   1.000  Zn
  Zn16     1.0000 0.58688  0.41315  0.58686  Biso   1.000  Zn
  H25      1.0000 0.16168  0.16167  0.81499  Biso   1.000  H
  H26      1.0000 0.16168  0.16167  0.03538  Biso   1.000  H
  H27      1.0000 0.64129  0.86167  0.33539  Biso   1.000  H
  H28      1.0000 0.86168  0.64128  0.33539  Biso   1.000  H
  H29      1.0000 0.16168  0.64128  0.03538  Biso   1.000  H
  H30      1.0000 0.16168  0.86167  0.81499  Biso   1.000  H
  H31      1.0000 0.64129  0.16167  0.33539  Biso   1.000  H
  H32      1.0000 0.86168  0.16167  0.33539  Biso   1.000  H
  H33      1.0000 0.16168  0.86167  0.33539  Biso   1.000  H
  H34      1.0000 0.16168  0.64128  0.33539  Biso   1.000  H
  H35      1.0000 0.64129  0.16167  0.03538  Biso   1.000  H
  H36      1.0000 0.86168  0.16167  0.81499  Biso   1.000  H
  H37      1.0000 0.25148  0.25147  0.94558  Biso   1.000  H
  H38      1.0000 0.25148  0.25147  0.72519  Biso   1.000  H
  H39      1.0000 0.55149  0.77187  0.42519  Biso   1.000  H
  H40      1.0000 0.77188  0.55148  0.42519  Biso   1.000  H
  H41      1.0000 0.77188  0.25147  0.72519  Biso   1.000  H
  H42      1.0000 0.55149  0.25147  0.94558  Biso   1.000  H
  H43      1.0000 0.25148  0.77187  0.42519  Biso   1.000  H
  H44      1.0000 0.25148  0.55148  0.42519  Biso   1.000  H
  H45      1.0000 0.55149  0.25147  0.42519  Biso   1.000  H
  H46      1.0000 0.77188  0.25147  0.42519  Biso   1.000  H
  H47      1.0000 0.25148  0.77187  0.72519  Biso   1.000  H
  H48      1.0000 0.25148  0.55148  0.94558  Biso   1.000  H
  C49      1.0000 0.17992  0.17991  0.84185  Biso   1.000  C
  C50      1.0000 0.17992  0.17991  0.97204  Biso   1.000  C
  C51      1.0000 0.66815  0.79833  0.35363  Biso   1.000  C
  C52      1.0000 0.79834  0.66814  0.35363  Biso   1.000  C
  C53      1.0000 0.17992  0.66814  0.97204  Biso   1.000  C
  C54      1.0000 0.17992  0.79833  0.84185  Biso   1.000  C
  C55      1.0000 0.66815  0.17991  0.35363  Biso   1.000  C
  C56      1.0000 0.79834  0.17991  0.35363  Biso   1.000  C
  C57      1.0000 0.17992  0.79833  0.35363  Biso   1.000  C
  C58      1.0000 0.17992  0.66814  0.35363  Biso   1.000  C
  C59      1.0000 0.66815  0.17991  0.97204  Biso   1.000  C
  C60      1.0000 0.79834  0.17991  0.84185  Biso   1.000  C
  C61      1.0000 0.23324  0.23323  0.91872  Biso   1.000  C
  C62      1.0000 0.23324  0.23323  0.78853  Biso   1.000  C
  C63      1.0000 0.61483  0.74501  0.40695  Biso   1.000  C
  C64      1.0000 0.74502  0.61482  0.40695  Biso   1.000  C
  C65      1.0000 0.74502  0.23323  0.78853  Biso   1.000  C
  C66      1.0000 0.61483  0.23323  0.91872  Biso   1.000  C
  C67      1.0000 0.23324  0.74501  0.40695  Biso   1.000  C
  C68      1.0000 0.23324  0.61482  0.40695  Biso   1.000  C
  C69      1.0000 0.61483  0.23323  0.40695  Biso   1.000  C
  C70      1.0000 0.74502  0.23323  0.40695  Biso   1.000  C
  C71      1.0000 0.23324  0.74501  0.78853  Biso   1.000  C
  C72      1.0000 0.23324  0.61482  0.91872  Biso   1.000  C
  C73      1.0000 0.09501  0.09500  0.99185  Biso   1.000  C
  C74      1.0000 0.15300  0.15299  0.93386  Biso   1.000  C
  C75      1.0000 0.81815  0.81814  0.26871  Biso   1.000  C
  C76      1.0000 0.76016  0.76015  0.32671  Biso   1.000  C
  C77      1.0000 0.09501  0.81814  0.99185  Biso   1.000  C
  C78      1.0000 0.15300  0.76015  0.93386  Biso   1.000  C
  C79      1.0000 0.81815  0.09500  0.26871  Biso   1.000  C
  C80      1.0000 0.76016  0.15299  0.32671  Biso   1.000  C
  C81      1.0000 0.09501  0.81814  0.26871  Biso   1.000  C
  C82      1.0000 0.15300  0.76015  0.32671  Biso   1.000  C
  C83      1.0000 0.81815  0.09500  0.99185  Biso   1.000  C
  C84      1.0000 0.76016  0.15299  0.93386  Biso   1.000  C
  C85      1.0000 0.31816  0.31815  0.76872  Biso   1.000  C
  C86      1.0000 0.26016  0.26015  0.82671  Biso   1.000  C
  C87      1.0000 0.59502  0.59501  0.49186  Biso   1.000  C
  C88      1.0000 0.65301  0.65300  0.43387  Biso   1.000  C
  C89      1.0000 0.59502  0.31815  0.76872  Biso   1.000  C
  C90      1.0000 0.65301  0.26015  0.82671  Biso   1.000  C
  C91      1.0000 0.31816  0.59501  0.49186  Biso   1.000  C
  C92      1.0000 0.26016  0.65300  0.43387  Biso   1.000  C
  C93      1.0000 0.59502  0.31815  0.49186  Biso   1.000  C
  C94      1.0000 0.65301  0.26015  0.43387  Biso   1.000  C
  C95      1.0000 0.31816  0.59501  0.76872  Biso   1.000  C
  C96      1.0000 0.26016  0.65300  0.82671  Biso   1.000  C
  O27      1.0000 0.95658  0.95657  0.13028  Biso   1.000  O
  O28      1.0000 0.45659  0.45658  0.63029  Biso   1.000  O
  O29      1.0000 0.07267  0.07266  0.95323  Biso   1.000  O
  O30      1.0000 0.07267  0.07266  0.07515  Biso   1.000  O
  O31      1.0000 0.77953  0.90144  0.24637  Biso   1.000  O
  O32      1.0000 0.90145  0.77952  0.24637  Biso   1.000  O
  O33      1.0000 0.07267  0.77952  0.07515  Biso   1.000  O
  O34      1.0000 0.07267  0.90144  0.95323  Biso   1.000  O
  O35      1.0000 0.77953  0.07266  0.24637  Biso   1.000  O
  O36      1.0000 0.90145  0.07266  0.24637  Biso   1.000  O
  O37      1.0000 0.07267  0.90144  0.24637  Biso   1.000  O
  O38      1.0000 0.07267  0.77952  0.24637  Biso   1.000  O
  O39      1.0000 0.77953  0.07266  0.07515  Biso   1.000  O
  O40      1.0000 0.90145  0.07266  0.95323  Biso   1.000  O
  O41      1.0000 0.34050  0.34049  0.80734  Biso   1.000  O
  O42      1.0000 0.34050  0.34049  0.68542  Biso   1.000  O
  O43      1.0000 0.51172  0.63363  0.51420  Biso   1.000  O
  O44      1.0000 0.63364  0.51171  0.51420  Biso   1.000  O
  O45      1.0000 0.63364  0.34049  0.68542  Biso   1.000  O
  O46      1.0000 0.51172  0.34049  0.80734  Biso   1.000  O
  O47      1.0000 0.34050  0.63363  0.51420  Biso   1.000  O
  O48      1.0000 0.34050  0.51171  0.51420  Biso   1.000  O
  O49      1.0000 0.51172  0.34049  0.51420  Biso   1.000  O
  O50      1.0000 0.63364  0.34049  0.51420  Biso   1.000  O
  O51      1.0000 0.34050  0.63363  0.68542  Biso   1.000  O
