data_image0
_cell_length_a       18.3014
_cell_length_b       18.3014
_cell_length_c       18.3014
_cell_angle_alpha    60
_cell_angle_beta     60
_cell_angle_gamma    60

_symmetry_space_group_name_H-M    "P 1"
_symmetry_int_tables_number       1

loop_
  _symmetry_equiv_pos_as_xyz
  'x, y, z'

loop_
  _atom_site_label
  _atom_site_occupancy
  _atom_site_fract_x
  _atom_site_fract_y
  _atom_site_fract_z
  _atom_site_thermal_displace_type
  _atom_site_B_iso_or_equiv
  _atom_site_type_symbol
  Zn1      1.0000 0.20640  0.38080  0.20640  Biso   1.000  Zn
  Zn2      1.0000 0.38080  0.20640  0.20640  Biso   1.000  Zn
  Zn3      1.0000 0.20640  0.20640  0.20640  Biso   1.000  Zn
  Zn4      1.0000 0.20640  0.20640  0.38080  Biso   1.000  Zn
  Zn5      1.0000 0.61920  0.79360  0.79360  Biso   1.000  Zn
  Zn6      1.0000 0.79360  0.61920  0.79360  Biso   1.000  Zn
  Zn7      1.0000 0.79360  0.79360  0.79360  Biso   1.000  Zn
  Zn8      1.0000 0.79360  0.79360  0.61920  Biso   1.000  Zn
  H1       1.0000 0.04850  0.56570  0.04850  Biso   1.000  H
  H2       1.0000 0.56570  0.04850  0.33730  Biso   1.000  H
  H3       1.0000 0.04850  0.33730  0.04850  Biso   1.000  H
  H4       1.0000 0.33730  0.04850  0.56570  Biso   1.000  H
  H5       1.0000 0.04850  0.04850  0.33730  Biso   1.000  H
  H6       1.0000 0.56570  0.33730  0.04850  Biso   1.000  H
  H7       1.0000 0.04850  0.04850  0.56570  Biso   1.000  H
  H8       1.0000 0.33730  0.56570  0.04850  Biso   1.000  H
  H9       1.0000 0.04850  0.33730  0.56570  Biso   1.000  H
  H10      1.0000 0.56570  0.04850  0.04850  Biso   1.000  H
  H11      1.0000 0.04850  0.56570  0.33730  Biso   1.000  H
  H12      1.0000 0.33730  0.04850  0.04850  Biso   1.000  H
  H13      1.0000 0.43430  0.95150  0.95150  Biso   1.000  H
  H14      1.0000 0.95150  0.43430  0.66270  Biso   1.000  H
  H15      1.0000 0.66270  0.95150  0.95150  Biso   1.000  H
  H16      1.0000 0.95150  0.66270  0.43430  Biso   1.000  H
  H17      1.0000 0.95150  0.95150  0.66270  Biso   1.000  H
  H18      1.0000 0.66270  0.43430  0.95150  Biso   1.000  H
  H19      1.0000 0.95150  0.95150  0.43430  Biso   1.000  H
  H20      1.0000 0.43430  0.66270  0.95150  Biso   1.000  H
  H21      1.0000 0.66270  0.95150  0.43430  Biso   1.000  H
  H22      1.0000 0.95150  0.43430  0.95150  Biso   1.000  H
  H23      1.0000 0.43430  0.95150  0.66270  Biso   1.000  H
  H24      1.0000 0.95150  0.66270  0.95150  Biso   1.000  H
  C1       1.0000 0.02640  0.53920  0.02640  Biso   1.000  C
  C2       1.0000 0.53920  0.02640  0.40800  Biso   1.000  C
  C3       1.0000 0.02640  0.40800  0.02640  Biso   1.000  C
  C4       1.0000 0.40800  0.02640  0.53920  Biso   1.000  C
  C5       1.0000 0.02640  0.02640  0.40800  Biso   1.000  C
  C6       1.0000 0.53920  0.40800  0.02640  Biso   1.000  C
  C7       1.0000 0.02640  0.02640  0.53920  Biso   1.000  C
  C8       1.0000 0.40800  0.53920  0.02640  Biso   1.000  C
  C9       1.0000 0.02640  0.40800  0.53920  Biso   1.000  C
  C10      1.0000 0.53920  0.02640  0.02640  Biso   1.000  C
  C11      1.0000 0.02640  0.53920  0.40800  Biso   1.000  C
  C12      1.0000 0.40800  0.02640  0.02640  Biso   1.000  C
  C13      1.0000 0.46080  0.97360  0.97360  Biso   1.000  C
  C14      1.0000 0.97360  0.46080  0.59200  Biso   1.000  C
  C15      1.0000 0.59200  0.97360  0.97360  Biso   1.000  C
  C16      1.0000 0.97360  0.59200  0.46080  Biso   1.000  C
  C17      1.0000 0.97360  0.97360  0.59200  Biso   1.000  C
  C18      1.0000 0.59200  0.46080  0.97360  Biso   1.000  C
  C19      1.0000 0.97360  0.97360  0.46080  Biso   1.000  C
  C20      1.0000 0.46080  0.59200  0.97360  Biso   1.000  C
  C21      1.0000 0.59200  0.97360  0.46080  Biso   1.000  C
  C22      1.0000 0.97360  0.46080  0.97360  Biso   1.000  C
  C23      1.0000 0.46080  0.97360  0.59200  Biso   1.000  C
  C24      1.0000 0.97360  0.59200  0.97360  Biso   1.000  C
  C25      1.0000 0.11050  0.38950  0.11050  Biso   1.000  C
  C26      1.0000 0.05430  0.44570  0.05430  Biso   1.000  C
  C27      1.0000 0.38950  0.11050  0.38950  Biso   1.000  C
  C28      1.0000 0.44570  0.05430  0.44570  Biso   1.000  C
  C29      1.0000 0.11050  0.11050  0.38950  Biso   1.000  C
  C30      1.0000 0.05430  0.05430  0.44570  Biso   1.000  C
  C31      1.0000 0.38950  0.38950  0.11050  Biso   1.000  C
  C32      1.0000 0.44570  0.44570  0.05430  Biso   1.000  C
  C33      1.0000 0.11050  0.38950  0.38950  Biso   1.000  C
  C34      1.0000 0.05430  0.44570  0.44570  Biso   1.000  C
  C35      1.0000 0.38950  0.11050  0.11050  Biso   1.000  C
  C36      1.0000 0.44570  0.05430  0.05430  Biso   1.000  C
  C37      1.0000 0.61050  0.88950  0.88950  Biso   1.000  C
  C38      1.0000 0.55430  0.94570  0.94570  Biso   1.000  C
  C39      1.0000 0.88950  0.61050  0.61050  Biso   1.000  C
  C40      1.0000 0.94570  0.55430  0.55430  Biso   1.000  C
  C41      1.0000 0.88950  0.88950  0.61050  Biso   1.000  C
  C42      1.0000 0.94570  0.94570  0.55430  Biso   1.000  C
  C43      1.0000 0.61050  0.61050  0.88950  Biso   1.000  C
  C44      1.0000 0.55430  0.55430  0.94570  Biso   1.000  C
  C45      1.0000 0.61050  0.88950  0.61050  Biso   1.000  C
  C46      1.0000 0.55430  0.94570  0.55430  Biso   1.000  C
  C47      1.0000 0.88950  0.61050  0.88950  Biso   1.000  C
  C48      1.0000 0.94570  0.55430  0.94570  Biso   1.000  C
  O1       1.0000 0.25000  0.25000  0.25000  Biso   1.000  O
  O2       1.0000 0.75000  0.75000  0.75000  Biso   1.000  O
  O3       1.0000 0.13330  0.42830  0.13330  Biso   1.000  O
  O4       1.0000 0.42830  0.13330  0.30510  Biso   1.000  O
  O5       1.0000 0.13330  0.30510  0.13330  Biso   1.000  O
  O6       1.0000 0.30510  0.13330  0.42830  Biso   1.000  O
  O7       1.0000 0.13330  0.13330  0.30510  Biso   1.000  O
  O8       1.0000 0.42830  0.30510  0.13330  Biso   1.000  O
  O9       1.0000 0.13330  0.13330  0.42830  Biso   1.000  O
  O10      1.0000 0.30510  0.42830  0.13330  Biso   1.000  O
  O11      1.0000 0.13330  0.30510  0.42830  Biso   1.000  O
  O12      1.0000 0.42830  0.13330  0.13330  Biso   1.000  O
  O13      1.0000 0.13330  0.42830  0.30510  Biso   1.000  O
  O14      1.0000 0.30510  0.13330  0.13330  Biso   1.000  O
  O15      1.0000 0.57170  0.86670  0.86670  Biso   1.000  O
  O16      1.0000 0.86670  0.57170  0.69490  Biso   1.000  O
  O17      1.0000 0.69490  0.86670  0.86670  Biso   1.000  O
  O18      1.0000 0.86670  0.69490  0.57170  Biso   1.000  O
  O19      1.0000 0.86670  0.86670  0.69490  Biso   1.000  O
  O20      1.0000 0.69490  0.57170  0.86670  Biso   1.000  O
  O21      1.0000 0.86670  0.86670  0.57170  Biso   1.000  O
  O22      1.0000 0.57170  0.69490  0.86670  Biso   1.000  O
  O23      1.0000 0.69490  0.86670  0.57170  Biso   1.000  O
  O24      1.0000 0.86670  0.57170  0.86670  Biso   1.000  O
  O25      1.0000 0.57170  0.86670  0.69490  Biso   1.000  O
  O26      1.0000 0.86670  0.69490  0.86670  Biso   1.000  O
  Zn9      1.0000 0.16392  0.00000  0.00000  Biso   1.000  Zn
  Zn10     1.0000 0.57806  0.58584  0.41417  Biso   1.000  Zn
  Zn11     1.0000 0.57806  0.41196  0.41417  Biso   1.000  Zn
  Zn12     1.0000 0.16392  0.82611  0.00000  Biso   1.000  Zn
  Zn13     1.0000 0.16366  0.00020  0.82597  Biso   1.000  Zn
  Zn14     1.0000 0.98968  0.00007  0.00021  Biso   1.000  Zn
  Zn15     1.0000 0.57832  0.41176  0.58820  Biso   1.000  Zn
  Zn16     1.0000 0.75230  0.41189  0.41396  Biso   1.000  Zn
  H25      1.0000 0.32778  0.64099  0.85898  Biso   1.000  H
  H26      1.0000 0.31977  0.85922  0.64565  Biso   1.000  H
  H27      1.0000 0.02770  0.64297  0.16068  Biso   1.000  H
  H28      1.0000 0.80449  0.86039  0.16597  Biso   1.000  H
  H29      1.0000 0.32948  0.85979  0.15889  Biso   1.000  H
  H30      1.0000 0.41421  0.24967  0.55519  Biso   1.000  H
  H31      1.0000 0.42221  0.24656  0.76852  Biso   1.000  H
  H32      1.0000 0.71428  0.25327  0.25349  Biso   1.000  H
  H33      1.0000 0.93749  0.25278  0.24820  Biso   1.000  H
  H34      1.0000 0.41250  0.77008  0.25528  Biso   1.000  H
  H35      1.0000 0.41421  0.77096  0.55519  Biso   1.000  H
  H36      1.0000 0.42221  0.55274  0.76852  Biso   1.000  H
  H37      1.0000 0.71428  0.76898  0.25349  Biso   1.000  H
  H38      1.0000 0.93749  0.55157  0.24820  Biso   1.000  H
  H39      1.0000 0.41250  0.55216  0.25528  Biso   1.000  H
  H40      1.0000 0.32777  0.16229  0.85898  Biso   1.000  H
  H41      1.0000 0.31977  0.16539  0.64565  Biso   1.000  H
  H42      1.0000 0.02770  0.15868  0.16068  Biso   1.000  H
  H43      1.0000 0.80450  0.15918  0.16597  Biso   1.000  H
  H44      1.0000 0.32949  0.64187  0.15889  Biso   1.000  H
  H45      1.0000 0.80837  0.16099  0.85968  Biso   1.000  H
  H46      1.0000 0.02088  0.16370  0.64176  Biso   1.000  H
  H47      1.0000 0.93362  0.25096  0.55449  Biso   1.000  H
  H48      1.0000 0.72110  0.24826  0.77241  Biso   1.000  H
  C49      1.0000 0.25875  0.81643  0.82039  Biso   1.000  C
  C50      1.0000 0.31718  0.75958  0.76015  Biso   1.000  C
  C51      1.0000 0.34662  0.66742  0.79685  Biso   1.000  C
  C52      1.0000 0.34072  0.79719  0.67118  Biso   1.000  C
  C53      1.0000 0.98211  0.81761  0.09625  Biso   1.000  C
  C54      1.0000 0.92517  0.76206  0.15300  Biso   1.000  C
  C55      1.0000 0.96577  0.66860  0.17814  Biso   1.000  C
  C56      1.0000 0.83202  0.79856  0.18153  Biso   1.000  C
  C57      1.0000 0.34574  0.79786  0.17834  Biso   1.000  C
  C58      1.0000 0.48324  0.31748  0.59379  Biso   1.000  C
  C59      1.0000 0.42480  0.25884  0.65403  Biso   1.000  C
  C60      1.0000 0.39537  0.23281  0.61732  Biso   1.000  C
  C61      1.0000 0.40127  0.23101  0.74299  Biso   1.000  C
  C62      1.0000 0.75988  0.31790  0.31792  Biso   1.000  C
  C63      1.0000 0.81682  0.26215  0.26117  Biso   1.000  C
  C64      1.0000 0.77621  0.23443  0.23604  Biso   1.000  C
  C65      1.0000 0.90996  0.23403  0.23264  Biso   1.000  C
  C66      1.0000 0.39624  0.74385  0.23584  Biso   1.000  C
  C67      1.0000 0.48324  0.59553  0.59379  Biso   1.000  C
  C68      1.0000 0.42480  0.65237  0.65403  Biso   1.000  C
  C69      1.0000 0.39536  0.74453  0.61732  Biso   1.000  C
  C70      1.0000 0.40127  0.61477  0.74299  Biso   1.000  C
  C71      1.0000 0.75988  0.59435  0.31792  Biso   1.000  C
  C72      1.0000 0.81682  0.64990  0.26117  Biso   1.000  C
  C73      1.0000 0.77621  0.74335  0.23604  Biso   1.000  C
  C74      1.0000 0.90997  0.61340  0.23264  Biso   1.000  C
  C75      1.0000 0.39625  0.61410  0.23584  Biso   1.000  C
  C76      1.0000 0.25875  0.09447  0.82039  Biso   1.000  C
  C77      1.0000 0.31719  0.15312  0.76015  Biso   1.000  C
  C78      1.0000 0.34662  0.17915  0.79685  Biso   1.000  C
  C79      1.0000 0.34072  0.18095  0.67118  Biso   1.000  C
  C80      1.0000 0.98211  0.09406  0.09625  Biso   1.000  C
  C81      1.0000 0.92517  0.14981  0.15300  Biso   1.000  C
  C82      1.0000 0.96577  0.17753  0.17814  Biso   1.000  C
  C83      1.0000 0.83202  0.17793  0.18153  Biso   1.000  C
  C84      1.0000 0.34574  0.66810  0.17834  Biso   1.000  C
  C85      1.0000 0.98389  0.09617  0.81380  Biso   1.000  C
  C86      1.0000 0.92485  0.15212  0.76094  Biso   1.000  C
  C87      1.0000 0.83490  0.17865  0.79785  Biso   1.000  C
  C88      1.0000 0.95875  0.18105  0.66919  Biso   1.000  C
  C89      1.0000 0.25796  0.82050  0.09107  Biso   1.000  C
  C90      1.0000 0.31621  0.76046  0.15290  Biso   1.000  C
  C91      1.0000 0.75809  0.31579  0.60037  Biso   1.000  C
  C92      1.0000 0.81714  0.25983  0.65323  Biso   1.000  C
  C93      1.0000 0.90709  0.23331  0.61633  Biso   1.000  C
  C94      1.0000 0.78323  0.23091  0.74499  Biso   1.000  C
  C95      1.0000 0.48403  0.59145  0.32310  Biso   1.000  C
  C96      1.0000 0.42578  0.65150  0.26127  Biso   1.000  C
  O27      1.0000 0.23670  0.90190  0.77700  Biso   1.000  O
  O28      1.0000 0.23910  0.77603  0.90287  Biso   1.000  O
  O29      1.0000 0.94132  0.90298  0.07102  Biso   1.000  O
  O30      1.0000 0.06618  0.77752  0.07381  Biso   1.000  O
  O31      1.0000 0.23702  0.90328  0.07152  Biso   1.000  O
  O32      1.0000 0.50528  0.33753  0.63717  Biso   1.000  O
  O33      1.0000 0.50288  0.33993  0.51131  Biso   1.000  O
  O34      1.0000 0.80067  0.33724  0.34315  Biso   1.000  O
  O35      1.0000 0.67580  0.33944  0.34036  Biso   1.000  O
  O36      1.0000 0.50497  0.63374  0.34265  Biso   1.000  O
  O37      1.0000 0.50528  0.51006  0.63717  Biso   1.000  O
  O38      1.0000 0.50288  0.63592  0.51131  Biso   1.000  O
  O39      1.0000 0.80067  0.50898  0.34315  Biso   1.000  O
  O40      1.0000 0.67581  0.63444  0.34036  Biso   1.000  O
  O41      1.0000 0.50497  0.50868  0.34265  Biso   1.000  O
  O42      1.0000 0.23670  0.07443  0.77700  Biso   1.000  O
  O43      1.0000 0.23910  0.07203  0.90287  Biso   1.000  O
  O44      1.0000 0.94132  0.07471  0.07102  Biso   1.000  O
  O45      1.0000 0.06618  0.07252  0.07381  Biso   1.000  O
  O46      1.0000 0.23702  0.77822  0.07152  Biso   1.000  O
  O47      1.0000 0.12033  0.95674  0.95623  Biso   1.000  O
  O48      1.0000 0.06597  0.07303  0.77800  Biso   1.000  O
  O49      1.0000 0.94261  0.07462  0.89818  Biso   1.000  O
  O50      1.0000 0.62166  0.45522  0.45795  Biso   1.000  O
  O51      1.0000 0.67602  0.33892  0.63617  Biso   1.000  O
