data_image0
_cell_length_a       18.3014
_cell_length_b       18.3014
_cell_length_c       18.3014
_cell_angle_alpha    60
_cell_angle_beta     60
_cell_angle_gamma    60

_symmetry_space_group_name_H-M    "P 1"
_symmetry_int_tables_number       1

loop_
  _symmetry_equiv_pos_as_xyz
  'x, y, z'

loop_
  _atom_site_label
  _atom_site_occupancy
  _atom_site_fract_x
  _atom_site_fract_y
  _atom_site_fract_z
  _atom_site_thermal_displace_type
  _atom_site_B_iso_or_equiv
  _atom_site_type_symbol
  Zn1      1.0000 0.20640  0.38080  0.20640  Biso   1.000  Zn
  Zn2      1.0000 0.38080  0.20640  0.20640  Biso   1.000  Zn
  Zn3      1.0000 0.20640  0.20640  0.20640  Biso   1.000  Zn
  Zn4      1.0000 0.20640  0.20640  0.38080  Biso   1.000  Zn
  Zn5      1.0000 0.61920  0.79360  0.79360  Biso   1.000  Zn
  Zn6      1.0000 0.79360  0.61920  0.79360  Biso   1.000  Zn
  Zn7      1.0000 0.79360  0.79360  0.79360  Biso   1.000  Zn
  Zn8      1.0000 0.79360  0.79360  0.61920  Biso   1.000  Zn
  H1       1.0000 0.04850  0.56570  0.04850  Biso   1.000  H
  H2       1.0000 0.56570  0.04850  0.33730  Biso   1.000  H
  H3       1.0000 0.04850  0.33730  0.04850  Biso   1.000  H
  H4       1.0000 0.33730  0.04850  0.56570  Biso   1.000  H
  H5       1.0000 0.04850  0.04850  0.33730  Biso   1.000  H
  H6       1.0000 0.56570  0.33730  0.04850  Biso   1.000  H
  H7       1.0000 0.04850  0.04850  0.56570  Biso   1.000  H
  H8       1.0000 0.33730  0.56570  0.04850  Biso   1.000  H
  H9       1.0000 0.04850  0.33730  0.56570  Biso   1.000  H
  H10      1.0000 0.56570  0.04850  0.04850  Biso   1.000  H
  H11      1.0000 0.04850  0.56570  0.33730  Biso   1.000  H
  H12      1.0000 0.33730  0.04850  0.04850  Biso   1.000  H
  H13      1.0000 0.43430  0.95150  0.95150  Biso   1.000  H
  H14      1.0000 0.95150  0.43430  0.66270  Biso   1.000  H
  H15      1.0000 0.66270  0.95150  0.95150  Biso   1.000  H
  H16      1.0000 0.95150  0.66270  0.43430  Biso   1.000  H
  H17      1.0000 0.95150  0.95150  0.66270  Biso   1.000  H
  H18      1.0000 0.66270  0.43430  0.95150  Biso   1.000  H
  H19      1.0000 0.95150  0.95150  0.43430  Biso   1.000  H
  H20      1.0000 0.43430  0.66270  0.95150  Biso   1.000  H
  H21      1.0000 0.66270  0.95150  0.43430  Biso   1.000  H
  H22      1.0000 0.95150  0.43430  0.95150  Biso   1.000  H
  H23      1.0000 0.43430  0.95150  0.66270  Biso   1.000  H
  H24      1.0000 0.95150  0.66270  0.95150  Biso   1.000  H
  C1       1.0000 0.02640  0.53920  0.02640  Biso   1.000  C
  C2       1.0000 0.53920  0.02640  0.40800  Biso   1.000  C
  C3       1.0000 0.02640  0.40800  0.02640  Biso   1.000  C
  C4       1.0000 0.40800  0.02640  0.53920  Biso   1.000  C
  C5       1.0000 0.02640  0.02640  0.40800  Biso   1.000  C
  C6       1.0000 0.53920  0.40800  0.02640  Biso   1.000  C
  C7       1.0000 0.02640  0.02640  0.53920  Biso   1.000  C
  C8       1.0000 0.40800  0.53920  0.02640  Biso   1.000  C
  C9       1.0000 0.02640  0.40800  0.53920  Biso   1.000  C
  C10      1.0000 0.53920  0.02640  0.02640  Biso   1.000  C
  C11      1.0000 0.02640  0.53920  0.40800  Biso   1.000  C
  C12      1.0000 0.40800  0.02640  0.02640  Biso   1.000  C
  C13      1.0000 0.46080  0.97360  0.97360  Biso   1.000  C
  C14      1.0000 0.97360  0.46080  0.59200  Biso   1.000  C
  C15      1.0000 0.59200  0.97360  0.97360  Biso   1.000  C
  C16      1.0000 0.97360  0.59200  0.46080  Biso   1.000  C
  C17      1.0000 0.97360  0.97360  0.59200  Biso   1.000  C
  C18      1.0000 0.59200  0.46080  0.97360  Biso   1.000  C
  C19      1.0000 0.97360  0.97360  0.46080  Biso   1.000  C
  C20      1.0000 0.46080  0.59200  0.97360  Biso   1.000  C
  C21      1.0000 0.59200  0.97360  0.46080  Biso   1.000  C
  C22      1.0000 0.97360  0.46080  0.97360  Biso   1.000  C
  C23      1.0000 0.46080  0.97360  0.59200  Biso   1.000  C
  C24      1.0000 0.97360  0.59200  0.97360  Biso   1.000  C
  C25      1.0000 0.11050  0.38950  0.11050  Biso   1.000  C
  C26      1.0000 0.05430  0.44570  0.05430  Biso   1.000  C
  C27      1.0000 0.38950  0.11050  0.38950  Biso   1.000  C
  C28      1.0000 0.44570  0.05430  0.44570  Biso   1.000  C
  C29      1.0000 0.11050  0.11050  0.38950  Biso   1.000  C
  C30      1.0000 0.05430  0.05430  0.44570  Biso   1.000  C
  C31      1.0000 0.38950  0.38950  0.11050  Biso   1.000  C
  C32      1.0000 0.44570  0.44570  0.05430  Biso   1.000  C
  C33      1.0000 0.11050  0.38950  0.38950  Biso   1.000  C
  C34      1.0000 0.05430  0.44570  0.44570  Biso   1.000  C
  C35      1.0000 0.38950  0.11050  0.11050  Biso   1.000  C
  C36      1.0000 0.44570  0.05430  0.05430  Biso   1.000  C
  C37      1.0000 0.61050  0.88950  0.88950  Biso   1.000  C
  C38      1.0000 0.55430  0.94570  0.94570  Biso   1.000  C
  C39      1.0000 0.88950  0.61050  0.61050  Biso   1.000  C
  C40      1.0000 0.94570  0.55430  0.55430  Biso   1.000  C
  C41      1.0000 0.88950  0.88950  0.61050  Biso   1.000  C
  C42      1.0000 0.94570  0.94570  0.55430  Biso   1.000  C
  C43      1.0000 0.61050  0.61050  0.88950  Biso   1.000  C
  C44      1.0000 0.55430  0.55430  0.94570  Biso   1.000  C
  C45      1.0000 0.61050  0.88950  0.61050  Biso   1.000  C
  C46      1.0000 0.55430  0.94570  0.55430  Biso   1.000  C
  C47      1.0000 0.88950  0.61050  0.88950  Biso   1.000  C
  C48      1.0000 0.94570  0.55430  0.94570  Biso   1.000  C
  O1       1.0000 0.25000  0.25000  0.25000  Biso   1.000  O
  O2       1.0000 0.75000  0.75000  0.75000  Biso   1.000  O
  O3       1.0000 0.13330  0.42830  0.13330  Biso   1.000  O
  O4       1.0000 0.42830  0.13330  0.30510  Biso   1.000  O
  O5       1.0000 0.13330  0.30510  0.13330  Biso   1.000  O
  O6       1.0000 0.30510  0.13330  0.42830  Biso   1.000  O
  O7       1.0000 0.13330  0.13330  0.30510  Biso   1.000  O
  O8       1.0000 0.42830  0.30510  0.13330  Biso   1.000  O
  O9       1.0000 0.13330  0.13330  0.42830  Biso   1.000  O
  O10      1.0000 0.30510  0.42830  0.13330  Biso   1.000  O
  O11      1.0000 0.13330  0.30510  0.42830  Biso   1.000  O
  O12      1.0000 0.42830  0.13330  0.13330  Biso   1.000  O
  O13      1.0000 0.13330  0.42830  0.30510  Biso   1.000  O
  O14      1.0000 0.30510  0.13330  0.13330  Biso   1.000  O
  O15      1.0000 0.57170  0.86670  0.86670  Biso   1.000  O
  O16      1.0000 0.86670  0.57170  0.69490  Biso   1.000  O
  O17      1.0000 0.69490  0.86670  0.86670  Biso   1.000  O
  O18      1.0000 0.86670  0.69490  0.57170  Biso   1.000  O
  O19      1.0000 0.86670  0.86670  0.69490  Biso   1.000  O
  O20      1.0000 0.69490  0.57170  0.86670  Biso   1.000  O
  O21      1.0000 0.86670  0.86670  0.57170  Biso   1.000  O
  O22      1.0000 0.57170  0.69490  0.86670  Biso   1.000  O
  O23      1.0000 0.69490  0.86670  0.57170  Biso   1.000  O
  O24      1.0000 0.86670  0.57170  0.86670  Biso   1.000  O
  O25      1.0000 0.57170  0.86670  0.69490  Biso   1.000  O
  O26      1.0000 0.86670  0.69490  0.86670  Biso   1.000  O
  Zn9      1.0000 0.00000  0.00000  0.00000  Biso   1.000  Zn
  Zn10     1.0000 0.00000  0.00000  0.17368  Biso   1.000  Zn
  Zn11     1.0000 0.82632  0.00000  0.17368  Biso   1.000  Zn
  Zn12     1.0000 1.00000  0.82632  0.17368  Biso   1.000  Zn
  Zn13     1.0000 0.41301  0.41303  0.76040  Biso   1.000  Zn
  Zn14     1.0000 0.41301  0.41303  0.58671  Biso   1.000  Zn
  Zn15     1.0000 0.41301  0.58671  0.58671  Biso   1.000  Zn
  Zn16     1.0000 0.58669  0.41303  0.58671  Biso   1.000  Zn
  H25      1.0000 0.16172  0.16173  0.81488  Biso   1.000  H
  H26      1.0000 0.16172  0.16173  0.03509  Biso   1.000  H
  H27      1.0000 0.64119  0.86141  0.33541  Biso   1.000  H
  H28      1.0000 0.86140  0.64120  0.33541  Biso   1.000  H
  H29      1.0000 0.16172  0.64120  0.03509  Biso   1.000  H
  H30      1.0000 0.16172  0.86141  0.81488  Biso   1.000  H
  H31      1.0000 0.64119  0.16173  0.33541  Biso   1.000  H
  H32      1.0000 0.86140  0.16173  0.33541  Biso   1.000  H
  H33      1.0000 0.16172  0.86141  0.33541  Biso   1.000  H
  H34      1.0000 0.16172  0.64120  0.33541  Biso   1.000  H
  H35      1.0000 0.64119  0.16173  0.03509  Biso   1.000  H
  H36      1.0000 0.86140  0.16173  0.81488  Biso   1.000  H
  H37      1.0000 0.25129  0.25130  0.94551  Biso   1.000  H
  H38      1.0000 0.25129  0.25130  0.72531  Biso   1.000  H
  H39      1.0000 0.55161  0.77183  0.42499  Biso   1.000  H
  H40      1.0000 0.77182  0.55162  0.42499  Biso   1.000  H
  H41      1.0000 0.77182  0.25130  0.72531  Biso   1.000  H
  H42      1.0000 0.55161  0.25130  0.94551  Biso   1.000  H
  H43      1.0000 0.25129  0.77183  0.42499  Biso   1.000  H
  H44      1.0000 0.25129  0.55162  0.42499  Biso   1.000  H
  H45      1.0000 0.55161  0.25130  0.42499  Biso   1.000  H
  H46      1.0000 0.77182  0.25130  0.42499  Biso   1.000  H
  H47      1.0000 0.25129  0.77183  0.72531  Biso   1.000  H
  H48      1.0000 0.25129  0.55162  0.94551  Biso   1.000  H
  C49      1.0000 0.17990  0.17991  0.84182  Biso   1.000  C
  C50      1.0000 0.17990  0.17991  0.97178  Biso   1.000  C
  C51      1.0000 0.66813  0.79809  0.35360  Biso   1.000  C
  C52      1.0000 0.79808  0.66814  0.35360  Biso   1.000  C
  C53      1.0000 0.17990  0.66814  0.97178  Biso   1.000  C
  C54      1.0000 0.17990  0.79809  0.84182  Biso   1.000  C
  C55      1.0000 0.66813  0.17991  0.35360  Biso   1.000  C
  C56      1.0000 0.79808  0.17991  0.35360  Biso   1.000  C
  C57      1.0000 0.17990  0.79809  0.35360  Biso   1.000  C
  C58      1.0000 0.17990  0.66814  0.35360  Biso   1.000  C
  C59      1.0000 0.66813  0.17991  0.97178  Biso   1.000  C
  C60      1.0000 0.79808  0.17991  0.84182  Biso   1.000  C
  C61      1.0000 0.23311  0.23312  0.91857  Biso   1.000  C
  C62      1.0000 0.23311  0.23312  0.78862  Biso   1.000  C
  C63      1.0000 0.61493  0.74489  0.40680  Biso   1.000  C
  C64      1.0000 0.74488  0.61494  0.40680  Biso   1.000  C
  C65      1.0000 0.74488  0.23312  0.78862  Biso   1.000  C
  C66      1.0000 0.61493  0.23312  0.91857  Biso   1.000  C
  C67      1.0000 0.23311  0.74489  0.40680  Biso   1.000  C
  C68      1.0000 0.23311  0.61494  0.40680  Biso   1.000  C
  C69      1.0000 0.61493  0.23312  0.40680  Biso   1.000  C
  C70      1.0000 0.74488  0.23312  0.40680  Biso   1.000  C
  C71      1.0000 0.23311  0.74489  0.78862  Biso   1.000  C
  C72      1.0000 0.23311  0.61494  0.91857  Biso   1.000  C
  C73      1.0000 0.09493  0.09494  0.99190  Biso   1.000  C
  C74      1.0000 0.15289  0.15290  0.93395  Biso   1.000  C
  C75      1.0000 0.81821  0.81822  0.26863  Biso   1.000  C
  C76      1.0000 0.76025  0.76026  0.32658  Biso   1.000  C
  C77      1.0000 0.09493  0.81822  0.99190  Biso   1.000  C
  C78      1.0000 0.15289  0.76026  0.93395  Biso   1.000  C
  C79      1.0000 0.81821  0.09494  0.26863  Biso   1.000  C
  C80      1.0000 0.76025  0.15290  0.32658  Biso   1.000  C
  C81      1.0000 0.09493  0.81822  0.26863  Biso   1.000  C
  C82      1.0000 0.15289  0.76026  0.32658  Biso   1.000  C
  C83      1.0000 0.81821  0.09494  0.99190  Biso   1.000  C
  C84      1.0000 0.76025  0.15290  0.93395  Biso   1.000  C
  C85      1.0000 0.31807  0.31808  0.76849  Biso   1.000  C
  C86      1.0000 0.26012  0.26013  0.82645  Biso   1.000  C
  C87      1.0000 0.59480  0.59481  0.49177  Biso   1.000  C
  C88      1.0000 0.65276  0.65277  0.43381  Biso   1.000  C
  C89      1.0000 0.59480  0.31808  0.76849  Biso   1.000  C
  C90      1.0000 0.65276  0.26013  0.82645  Biso   1.000  C
  C91      1.0000 0.31807  0.59481  0.49177  Biso   1.000  C
  C92      1.0000 0.26012  0.65277  0.43381  Biso   1.000  C
  C93      1.0000 0.59480  0.31808  0.49177  Biso   1.000  C
  C94      1.0000 0.65276  0.26013  0.43381  Biso   1.000  C
  C95      1.0000 0.31807  0.59481  0.76849  Biso   1.000  C
  C96      1.0000 0.26012  0.65277  0.82645  Biso   1.000  C
  O27      1.0000 0.95657  0.95658  0.13027  Biso   1.000  O
  O28      1.0000 0.45644  0.45645  0.63013  Biso   1.000  O
  O29      1.0000 0.07267  0.07268  0.95312  Biso   1.000  O
  O30      1.0000 0.07267  0.07268  0.07521  Biso   1.000  O
  O31      1.0000 0.77943  0.90153  0.24636  Biso   1.000  O
  O32      1.0000 0.90152  0.77944  0.24636  Biso   1.000  O
  O33      1.0000 0.07267  0.77944  0.07521  Biso   1.000  O
  O34      1.0000 0.07267  0.90153  0.95312  Biso   1.000  O
  O35      1.0000 0.77943  0.07268  0.24636  Biso   1.000  O
  O36      1.0000 0.90152  0.07268  0.24636  Biso   1.000  O
  O37      1.0000 0.07267  0.90153  0.24636  Biso   1.000  O
  O38      1.0000 0.07267  0.77944  0.24636  Biso   1.000  O
  O39      1.0000 0.77943  0.07268  0.07521  Biso   1.000  O
  O40      1.0000 0.90152  0.07268  0.95312  Biso   1.000  O
  O41      1.0000 0.34034  0.34035  0.80727  Biso   1.000  O
  O42      1.0000 0.34034  0.34035  0.68519  Biso   1.000  O
  O43      1.0000 0.51149  0.63359  0.51403  Biso   1.000  O
  O44      1.0000 0.63358  0.51150  0.51403  Biso   1.000  O
  O45      1.0000 0.63358  0.34035  0.68519  Biso   1.000  O
  O46      1.0000 0.51149  0.34035  0.80727  Biso   1.000  O
  O47      1.0000 0.34034  0.63359  0.51403  Biso   1.000  O
  O48      1.0000 0.34034  0.51150  0.51403  Biso   1.000  O
  O49      1.0000 0.51149  0.34035  0.51403  Biso   1.000  O
  O50      1.0000 0.63358  0.34035  0.51403  Biso   1.000  O
  O51      1.0000 0.34034  0.63359  0.68519  Biso   1.000  O
