data_image0
_cell_length_a       18.3014
_cell_length_b       18.3014
_cell_length_c       18.3014
_cell_angle_alpha    60
_cell_angle_beta     60
_cell_angle_gamma    60

_symmetry_space_group_name_H-M    "P 1"
_symmetry_int_tables_number       1

loop_
  _symmetry_equiv_pos_as_xyz
  'x, y, z'

loop_
  _atom_site_label
  _atom_site_occupancy
  _atom_site_fract_x
  _atom_site_fract_y
  _atom_site_fract_z
  _atom_site_thermal_displace_type
  _atom_site_B_iso_or_equiv
  _atom_site_type_symbol
  Zn1      1.0000 0.20640  0.38080  0.20640  Biso   1.000  Zn
  Zn2      1.0000 0.38080  0.20640  0.20640  Biso   1.000  Zn
  Zn3      1.0000 0.20640  0.20640  0.20640  Biso   1.000  Zn
  Zn4      1.0000 0.20640  0.20640  0.38080  Biso   1.000  Zn
  Zn5      1.0000 0.61920  0.79360  0.79360  Biso   1.000  Zn
  Zn6      1.0000 0.79360  0.61920  0.79360  Biso   1.000  Zn
  Zn7      1.0000 0.79360  0.79360  0.79360  Biso   1.000  Zn
  Zn8      1.0000 0.79360  0.79360  0.61920  Biso   1.000  Zn
  H1       1.0000 0.04850  0.56570  0.04850  Biso   1.000  H
  H2       1.0000 0.56570  0.04850  0.33730  Biso   1.000  H
  H3       1.0000 0.04850  0.33730  0.04850  Biso   1.000  H
  H4       1.0000 0.33730  0.04850  0.56570  Biso   1.000  H
  H5       1.0000 0.04850  0.04850  0.33730  Biso   1.000  H
  H6       1.0000 0.56570  0.33730  0.04850  Biso   1.000  H
  H7       1.0000 0.04850  0.04850  0.56570  Biso   1.000  H
  H8       1.0000 0.33730  0.56570  0.04850  Biso   1.000  H
  H9       1.0000 0.04850  0.33730  0.56570  Biso   1.000  H
  H10      1.0000 0.56570  0.04850  0.04850  Biso   1.000  H
  H11      1.0000 0.04850  0.56570  0.33730  Biso   1.000  H
  H12      1.0000 0.33730  0.04850  0.04850  Biso   1.000  H
  H13      1.0000 0.43430  0.95150  0.95150  Biso   1.000  H
  H14      1.0000 0.95150  0.43430  0.66270  Biso   1.000  H
  H15      1.0000 0.66270  0.95150  0.95150  Biso   1.000  H
  H16      1.0000 0.95150  0.66270  0.43430  Biso   1.000  H
  H17      1.0000 0.95150  0.95150  0.66270  Biso   1.000  H
  H18      1.0000 0.66270  0.43430  0.95150  Biso   1.000  H
  H19      1.0000 0.95150  0.95150  0.43430  Biso   1.000  H
  H20      1.0000 0.43430  0.66270  0.95150  Biso   1.000  H
  H21      1.0000 0.66270  0.95150  0.43430  Biso   1.000  H
  H22      1.0000 0.95150  0.43430  0.95150  Biso   1.000  H
  H23      1.0000 0.43430  0.95150  0.66270  Biso   1.000  H
  H24      1.0000 0.95150  0.66270  0.95150  Biso   1.000  H
  C1       1.0000 0.02640  0.53920  0.02640  Biso   1.000  C
  C2       1.0000 0.53920  0.02640  0.40800  Biso   1.000  C
  C3       1.0000 0.02640  0.40800  0.02640  Biso   1.000  C
  C4       1.0000 0.40800  0.02640  0.53920  Biso   1.000  C
  C5       1.0000 0.02640  0.02640  0.40800  Biso   1.000  C
  C6       1.0000 0.53920  0.40800  0.02640  Biso   1.000  C
  C7       1.0000 0.02640  0.02640  0.53920  Biso   1.000  C
  C8       1.0000 0.40800  0.53920  0.02640  Biso   1.000  C
  C9       1.0000 0.02640  0.40800  0.53920  Biso   1.000  C
  C10      1.0000 0.53920  0.02640  0.02640  Biso   1.000  C
  C11      1.0000 0.02640  0.53920  0.40800  Biso   1.000  C
  C12      1.0000 0.40800  0.02640  0.02640  Biso   1.000  C
  C13      1.0000 0.46080  0.97360  0.97360  Biso   1.000  C
  C14      1.0000 0.97360  0.46080  0.59200  Biso   1.000  C
  C15      1.0000 0.59200  0.97360  0.97360  Biso   1.000  C
  C16      1.0000 0.97360  0.59200  0.46080  Biso   1.000  C
  C17      1.0000 0.97360  0.97360  0.59200  Biso   1.000  C
  C18      1.0000 0.59200  0.46080  0.97360  Biso   1.000  C
  C19      1.0000 0.97360  0.97360  0.46080  Biso   1.000  C
  C20      1.0000 0.46080  0.59200  0.97360  Biso   1.000  C
  C21      1.0000 0.59200  0.97360  0.46080  Biso   1.000  C
  C22      1.0000 0.97360  0.46080  0.97360  Biso   1.000  C
  C23      1.0000 0.46080  0.97360  0.59200  Biso   1.000  C
  C24      1.0000 0.97360  0.59200  0.97360  Biso   1.000  C
  C25      1.0000 0.11050  0.38950  0.11050  Biso   1.000  C
  C26      1.0000 0.05430  0.44570  0.05430  Biso   1.000  C
  C27      1.0000 0.38950  0.11050  0.38950  Biso   1.000  C
  C28      1.0000 0.44570  0.05430  0.44570  Biso   1.000  C
  C29      1.0000 0.11050  0.11050  0.38950  Biso   1.000  C
  C30      1.0000 0.05430  0.05430  0.44570  Biso   1.000  C
  C31      1.0000 0.38950  0.38950  0.11050  Biso   1.000  C
  C32      1.0000 0.44570  0.44570  0.05430  Biso   1.000  C
  C33      1.0000 0.11050  0.38950  0.38950  Biso   1.000  C
  C34      1.0000 0.05430  0.44570  0.44570  Biso   1.000  C
  C35      1.0000 0.38950  0.11050  0.11050  Biso   1.000  C
  C36      1.0000 0.44570  0.05430  0.05430  Biso   1.000  C
  C37      1.0000 0.61050  0.88950  0.88950  Biso   1.000  C
  C38      1.0000 0.55430  0.94570  0.94570  Biso   1.000  C
  C39      1.0000 0.88950  0.61050  0.61050  Biso   1.000  C
  C40      1.0000 0.94570  0.55430  0.55430  Biso   1.000  C
  C41      1.0000 0.88950  0.88950  0.61050  Biso   1.000  C
  C42      1.0000 0.94570  0.94570  0.55430  Biso   1.000  C
  C43      1.0000 0.61050  0.61050  0.88950  Biso   1.000  C
  C44      1.0000 0.55430  0.55430  0.94570  Biso   1.000  C
  C45      1.0000 0.61050  0.88950  0.61050  Biso   1.000  C
  C46      1.0000 0.55430  0.94570  0.55430  Biso   1.000  C
  C47      1.0000 0.88950  0.61050  0.88950  Biso   1.000  C
  C48      1.0000 0.94570  0.55430  0.94570  Biso   1.000  C
  O1       1.0000 0.25000  0.25000  0.25000  Biso   1.000  O
  O2       1.0000 0.75000  0.75000  0.75000  Biso   1.000  O
  O3       1.0000 0.13330  0.42830  0.13330  Biso   1.000  O
  O4       1.0000 0.42830  0.13330  0.30510  Biso   1.000  O
  O5       1.0000 0.13330  0.30510  0.13330  Biso   1.000  O
  O6       1.0000 0.30510  0.13330  0.42830  Biso   1.000  O
  O7       1.0000 0.13330  0.13330  0.30510  Biso   1.000  O
  O8       1.0000 0.42830  0.30510  0.13330  Biso   1.000  O
  O9       1.0000 0.13330  0.13330  0.42830  Biso   1.000  O
  O10      1.0000 0.30510  0.42830  0.13330  Biso   1.000  O
  O11      1.0000 0.13330  0.30510  0.42830  Biso   1.000  O
  O12      1.0000 0.42830  0.13330  0.13330  Biso   1.000  O
  O13      1.0000 0.13330  0.42830  0.30510  Biso   1.000  O
  O14      1.0000 0.30510  0.13330  0.13330  Biso   1.000  O
  O15      1.0000 0.57170  0.86670  0.86670  Biso   1.000  O
  O16      1.0000 0.86670  0.57170  0.69490  Biso   1.000  O
  O17      1.0000 0.69490  0.86670  0.86670  Biso   1.000  O
  O18      1.0000 0.86670  0.69490  0.57170  Biso   1.000  O
  O19      1.0000 0.86670  0.86670  0.69490  Biso   1.000  O
  O20      1.0000 0.69490  0.57170  0.86670  Biso   1.000  O
  O21      1.0000 0.86670  0.86670  0.57170  Biso   1.000  O
  O22      1.0000 0.57170  0.69490  0.86670  Biso   1.000  O
  O23      1.0000 0.69490  0.86670  0.57170  Biso   1.000  O
  O24      1.0000 0.86670  0.57170  0.86670  Biso   1.000  O
  O25      1.0000 0.57170  0.86670  0.69490  Biso   1.000  O
  O26      1.0000 0.86670  0.69490  0.86670  Biso   1.000  O
  Zn9      1.0000 0.00000  0.00000  0.00000  Biso   1.000  Zn
  Zn10     1.0000 0.41376  0.58610  0.41403  Biso   1.000  Zn
  Zn11     1.0000 0.41376  0.41170  0.41403  Biso   1.000  Zn
  Zn12     1.0000 1.00000  0.82559  0.00000  Biso   1.000  Zn
  Zn13     1.0000 0.99954  0.00034  0.82537  Biso   1.000  Zn
  Zn14     1.0000 0.82519  0.00015  0.00010  Biso   1.000  Zn
  Zn15     1.0000 0.41422  0.41136  0.58866  Biso   1.000  Zn
  Zn16     1.0000 0.58857  0.41155  0.41393  Biso   1.000  Zn
  H25      1.0000 0.16536  0.64375  0.85682  Biso   1.000  H
  H26      1.0000 0.15636  0.86069  0.64568  Biso   1.000  H
  H27      1.0000 0.86230  0.64484  0.15972  Biso   1.000  H
  H28      1.0000 0.64268  0.85817  0.16201  Biso   1.000  H
  H29      1.0000 0.16617  0.86016  0.15722  Biso   1.000  H
  H30      1.0000 0.24841  0.25203  0.55721  Biso   1.000  H
  H31      1.0000 0.25740  0.24883  0.76835  Biso   1.000  H
  H32      1.0000 0.55147  0.25294  0.25432  Biso   1.000  H
  H33      1.0000 0.77108  0.24896  0.25202  Biso   1.000  H
  H34      1.0000 0.24759  0.76965  0.25681  Biso   1.000  H
  H35      1.0000 0.24840  0.76794  0.55721  Biso   1.000  H
  H36      1.0000 0.25741  0.55101  0.76835  Biso   1.000  H
  H37      1.0000 0.55147  0.76686  0.25432  Biso   1.000  H
  H38      1.0000 0.77109  0.55353  0.25202  Biso   1.000  H
  H39      1.0000 0.24759  0.55154  0.25681  Biso   1.000  H
  H40      1.0000 0.16536  0.15967  0.85682  Biso   1.000  H
  H41      1.0000 0.15636  0.16287  0.64568  Biso   1.000  H
  H42      1.0000 0.86229  0.15875  0.15972  Biso   1.000  H
  H43      1.0000 0.64268  0.16274  0.16201  Biso   1.000  H
  H44      1.0000 0.16617  0.64204  0.15722  Biso   1.000  H
  H45      1.0000 0.64356  0.16156  0.85891  Biso   1.000  H
  H46      1.0000 0.85687  0.16267  0.64339  Biso   1.000  H
  H47      1.0000 0.77020  0.25014  0.55512  Biso   1.000  H
  H48      1.0000 0.55689  0.24903  0.77065  Biso   1.000  H
  C49      1.0000 0.09404  0.81709  0.82052  Biso   1.000  C
  C50      1.0000 0.15347  0.75915  0.75948  Biso   1.000  C
  C51      1.0000 0.18311  0.66939  0.79478  Biso   1.000  C
  C52      1.0000 0.17571  0.79875  0.67161  Biso   1.000  C
  C53      1.0000 0.81570  0.82027  0.09688  Biso   1.000  C
  C54      1.0000 0.76175  0.76193  0.15204  Biso   1.000  C
  C55      1.0000 0.80027  0.67096  0.17767  Biso   1.000  C
  C56      1.0000 0.67030  0.79633  0.17946  Biso   1.000  C
  C57      1.0000 0.18203  0.79823  0.17727  Biso   1.000  C
  C58      1.0000 0.31973  0.31775  0.59352  Biso   1.000  C
  C59      1.0000 0.26029  0.25821  0.65456  Biso   1.000  C
  C60      1.0000 0.23066  0.23338  0.61925  Biso   1.000  C
  C61      1.0000 0.23805  0.23218  0.74242  Biso   1.000  C
  C62      1.0000 0.59806  0.31896  0.31715  Biso   1.000  C
  C63      1.0000 0.65201  0.26182  0.26200  Biso   1.000  C
  C64      1.0000 0.61350  0.23499  0.23636  Biso   1.000  C
  C65      1.0000 0.74346  0.23220  0.23457  Biso   1.000  C
  C66      1.0000 0.23173  0.74362  0.23676  Biso   1.000  C
  C67      1.0000 0.31973  0.59460  0.59352  Biso   1.000  C
  C68      1.0000 0.26029  0.65254  0.65456  Biso   1.000  C
  C69      1.0000 0.23065  0.74231  0.61925  Biso   1.000  C
  C70      1.0000 0.23806  0.61294  0.74242  Biso   1.000  C
  C71      1.0000 0.59806  0.59142  0.31715  Biso   1.000  C
  C72      1.0000 0.65201  0.64977  0.26200  Biso   1.000  C
  C73      1.0000 0.61350  0.74073  0.23636  Biso   1.000  C
  C74      1.0000 0.74346  0.61536  0.23457  Biso   1.000  C
  C75      1.0000 0.23174  0.61347  0.23676  Biso   1.000  C
  C76      1.0000 0.09404  0.09395  0.82052  Biso   1.000  C
  C77      1.0000 0.15347  0.15349  0.75948  Biso   1.000  C
  C78      1.0000 0.18311  0.17832  0.79478  Biso   1.000  C
  C79      1.0000 0.17571  0.17952  0.67161  Biso   1.000  C
  C80      1.0000 0.81571  0.09273  0.09688  Biso   1.000  C
  C81      1.0000 0.76175  0.14988  0.15204  Biso   1.000  C
  C82      1.0000 0.80026  0.17670  0.17767  Biso   1.000  C
  C83      1.0000 0.67030  0.17949  0.17946  Biso   1.000  C
  C84      1.0000 0.18203  0.66807  0.17727  Biso   1.000  C
  C85      1.0000 0.82237  0.09474  0.81373  Biso   1.000  C
  C86      1.0000 0.76034  0.15179  0.76167  Biso   1.000  C
  C87      1.0000 0.67068  0.17892  0.79708  Biso   1.000  C
  C88      1.0000 0.79494  0.18012  0.67041  Biso   1.000  C
  C89      1.0000 0.09255  0.82207  0.08890  Biso   1.000  C
  C90      1.0000 0.15239  0.76053  0.15214  Biso   1.000  C
  C91      1.0000 0.59139  0.31695  0.60030  Biso   1.000  C
  C92      1.0000 0.65342  0.25990  0.65236  Biso   1.000  C
  C93      1.0000 0.74308  0.23278  0.61696  Biso   1.000  C
  C94      1.0000 0.61882  0.23158  0.74362  Biso   1.000  C
  C95      1.0000 0.32121  0.58963  0.32513  Biso   1.000  C
  C96      1.0000 0.26137  0.65117  0.26190  Biso   1.000  C
  O27      1.0000 0.07399  0.90227  0.77474  Biso   1.000  O
  O28      1.0000 0.07529  0.77331  0.90449  Biso   1.000  O
  O29      1.0000 0.77591  0.90325  0.07045  Biso   1.000  O
  O30      1.0000 0.90177  0.77629  0.07444  Biso   1.000  O
  O31      1.0000 0.07350  0.90425  0.07165  Biso   1.000  O
  O32      1.0000 0.33977  0.33710  0.63930  Biso   1.000  O
  O33      1.0000 0.33847  0.33920  0.50954  Biso   1.000  O
  O34      1.0000 0.63785  0.33572  0.34358  Biso   1.000  O
  O35      1.0000 0.51199  0.33861  0.33959  Biso   1.000  O
  O36      1.0000 0.34026  0.63550  0.34238  Biso   1.000  O
  O37      1.0000 0.33978  0.50943  0.63930  Biso   1.000  O
  O38      1.0000 0.33847  0.63839  0.50954  Biso   1.000  O
  O39      1.0000 0.63785  0.50845  0.34358  Biso   1.000  O
  O40      1.0000 0.51199  0.63540  0.33959  Biso   1.000  O
  O41      1.0000 0.34026  0.50745  0.34238  Biso   1.000  O
  O42      1.0000 0.07399  0.07460  0.77474  Biso   1.000  O
  O43      1.0000 0.07529  0.07250  0.90449  Biso   1.000  O
  O44      1.0000 0.77591  0.07598  0.07045  Biso   1.000  O
  O45      1.0000 0.90177  0.07309  0.07444  Biso   1.000  O
  O46      1.0000 0.07350  0.77619  0.07165  Biso   1.000  O
  O47      1.0000 0.95691  0.95631  0.95606  Biso   1.000  O
  O48      1.0000 0.90295  0.07360  0.77544  Biso   1.000  O
  O49      1.0000 0.77730  0.07589  0.89651  Biso   1.000  O
  O50      1.0000 0.45685  0.45539  0.45798  Biso   1.000  O
  O51      1.0000 0.51081  0.33809  0.63860  Biso   1.000  O
