data_image0
_cell_length_a       18.3014
_cell_length_b       18.3014
_cell_length_c       18.3014
_cell_angle_alpha    60
_cell_angle_beta     60
_cell_angle_gamma    60

_symmetry_space_group_name_H-M    "P 1"
_symmetry_int_tables_number       1

loop_
  _symmetry_equiv_pos_as_xyz
  'x, y, z'

loop_
  _atom_site_label
  _atom_site_occupancy
  _atom_site_fract_x
  _atom_site_fract_y
  _atom_site_fract_z
  _atom_site_thermal_displace_type
  _atom_site_B_iso_or_equiv
  _atom_site_type_symbol
  C1       1.0000 0.20640  0.38080  0.20640  Biso   1.000  C
  C2       1.0000 0.38080  0.20640  0.20640  Biso   1.000  C
  C3       1.0000 0.20640  0.20640  0.20640  Biso   1.000  C
  C4       1.0000 0.20640  0.20640  0.38080  Biso   1.000  C
  C5       1.0000 0.61920  0.79360  0.79360  Biso   1.000  C
  C6       1.0000 0.79360  0.61920  0.79360  Biso   1.000  C
  C7       1.0000 0.79360  0.79360  0.79360  Biso   1.000  C
  C8       1.0000 0.79360  0.79360  0.61920  Biso   1.000  C
  C9       1.0000 0.04850  0.56570  0.04850  Biso   1.000  C
  C10      1.0000 0.56570  0.04850  0.33730  Biso   1.000  C
  C11      1.0000 0.04850  0.33730  0.04850  Biso   1.000  C
  C12      1.0000 0.33730  0.04850  0.56570  Biso   1.000  C
  C13      1.0000 0.04850  0.04850  0.33730  Biso   1.000  C
  C14      1.0000 0.56570  0.33730  0.04850  Biso   1.000  C
  C15      1.0000 0.04850  0.04850  0.56570  Biso   1.000  C
  C16      1.0000 0.33730  0.56570  0.04850  Biso   1.000  C
  C17      1.0000 0.04850  0.33730  0.56570  Biso   1.000  C
  C18      1.0000 0.56570  0.04850  0.04850  Biso   1.000  C
  C19      1.0000 0.04850  0.56570  0.33730  Biso   1.000  C
  C20      1.0000 0.33730  0.04850  0.04850  Biso   1.000  C
  C21      1.0000 0.43430  0.95150  0.95150  Biso   1.000  C
  C22      1.0000 0.95150  0.43430  0.66270  Biso   1.000  C
  C23      1.0000 0.66270  0.95150  0.95150  Biso   1.000  C
  C24      1.0000 0.95150  0.66270  0.43430  Biso   1.000  C
  C25      1.0000 0.95150  0.95150  0.66270  Biso   1.000  C
  C26      1.0000 0.66270  0.43430  0.95150  Biso   1.000  C
  C27      1.0000 0.95150  0.95150  0.43430  Biso   1.000  C
  C28      1.0000 0.43430  0.66270  0.95150  Biso   1.000  C
  C29      1.0000 0.66270  0.95150  0.43430  Biso   1.000  C
  C30      1.0000 0.95150  0.43430  0.95150  Biso   1.000  C
  C31      1.0000 0.43430  0.95150  0.66270  Biso   1.000  C
  C32      1.0000 0.95150  0.66270  0.95150  Biso   1.000  C
  C33      1.0000 0.02640  0.53920  0.02640  Biso   1.000  C
  C34      1.0000 0.53920  0.02640  0.40800  Biso   1.000  C
  C35      1.0000 0.02640  0.40800  0.02640  Biso   1.000  C
  C36      1.0000 0.40800  0.02640  0.53920  Biso   1.000  C
  C37      1.0000 0.02640  0.02640  0.40800  Biso   1.000  C
  C38      1.0000 0.53920  0.40800  0.02640  Biso   1.000  C
  C39      1.0000 0.02640  0.02640  0.53920  Biso   1.000  C
  C40      1.0000 0.40800  0.53920  0.02640  Biso   1.000  C
  C41      1.0000 0.02640  0.40800  0.53920  Biso   1.000  C
  C42      1.0000 0.53920  0.02640  0.02640  Biso   1.000  C
  C43      1.0000 0.02640  0.53920  0.40800  Biso   1.000  C
  C44      1.0000 0.40800  0.02640  0.02640  Biso   1.000  C
  C45      1.0000 0.46080  0.97360  0.97360  Biso   1.000  C
  C46      1.0000 0.97360  0.46080  0.59200  Biso   1.000  C
  C47      1.0000 0.59200  0.97360  0.97360  Biso   1.000  C
  C48      1.0000 0.97360  0.59200  0.46080  Biso   1.000  C
  C49      1.0000 0.97360  0.97360  0.59200  Biso   1.000  C
  C50      1.0000 0.59200  0.46080  0.97360  Biso   1.000  C
  C51      1.0000 0.97360  0.97360  0.46080  Biso   1.000  C
  C52      1.0000 0.46080  0.59200  0.97360  Biso   1.000  C
  C53      1.0000 0.59200  0.97360  0.46080  Biso   1.000  C
  C54      1.0000 0.97360  0.46080  0.97360  Biso   1.000  C
  C55      1.0000 0.46080  0.97360  0.59200  Biso   1.000  C
  C56      1.0000 0.97360  0.59200  0.97360  Biso   1.000  C
  C57      1.0000 0.11050  0.38950  0.11050  Biso   1.000  C
  C58      1.0000 0.05430  0.44570  0.05430  Biso   1.000  C
  C59      1.0000 0.38950  0.11050  0.38950  Biso   1.000  C
  C60      1.0000 0.44570  0.05430  0.44570  Biso   1.000  C
  C61      1.0000 0.11050  0.11050  0.38950  Biso   1.000  C
  C62      1.0000 0.05430  0.05430  0.44570  Biso   1.000  C
  C63      1.0000 0.38950  0.38950  0.11050  Biso   1.000  C
  C64      1.0000 0.44570  0.44570  0.05430  Biso   1.000  C
  C65      1.0000 0.11050  0.38950  0.38950  Biso   1.000  C
  C66      1.0000 0.05430  0.44570  0.44570  Biso   1.000  C
  C67      1.0000 0.38950  0.11050  0.11050  Biso   1.000  C
  C68      1.0000 0.44570  0.05430  0.05430  Biso   1.000  C
  C69      1.0000 0.61050  0.88950  0.88950  Biso   1.000  C
  C70      1.0000 0.55430  0.94570  0.94570  Biso   1.000  C
  C71      1.0000 0.88950  0.61050  0.61050  Biso   1.000  C
  C72      1.0000 0.94570  0.55430  0.55430  Biso   1.000  C
  C73      1.0000 0.88950  0.88950  0.61050  Biso   1.000  C
  C74      1.0000 0.94570  0.94570  0.55430  Biso   1.000  C
  C75      1.0000 0.61050  0.61050  0.88950  Biso   1.000  C
  C76      1.0000 0.55430  0.55430  0.94570  Biso   1.000  C
  C77      1.0000 0.61050  0.88950  0.61050  Biso   1.000  C
  C78      1.0000 0.55430  0.94570  0.55430  Biso   1.000  C
  C79      1.0000 0.88950  0.61050  0.88950  Biso   1.000  C
  C80      1.0000 0.94570  0.55430  0.94570  Biso   1.000  C
  C81      1.0000 0.25000  0.25000  0.25000  Biso   1.000  C
  C82      1.0000 0.75000  0.75000  0.75000  Biso   1.000  C
  C83      1.0000 0.13330  0.42830  0.13330  Biso   1.000  C
  C84      1.0000 0.42830  0.13330  0.30510  Biso   1.000  C
  C85      1.0000 0.13330  0.30510  0.13330  Biso   1.000  C
  C86      1.0000 0.30510  0.13330  0.42830  Biso   1.000  C
  C87      1.0000 0.13330  0.13330  0.30510  Biso   1.000  C
  C88      1.0000 0.42830  0.30510  0.13330  Biso   1.000  C
  C89      1.0000 0.13330  0.13330  0.42830  Biso   1.000  C
  C90      1.0000 0.30510  0.42830  0.13330  Biso   1.000  C
  C91      1.0000 0.13330  0.30510  0.42830  Biso   1.000  C
  C92      1.0000 0.42830  0.13330  0.13330  Biso   1.000  C
  C93      1.0000 0.13330  0.42830  0.30510  Biso   1.000  C
  C94      1.0000 0.30510  0.13330  0.13330  Biso   1.000  C
  C95      1.0000 0.57170  0.86670  0.86670  Biso   1.000  C
  C96      1.0000 0.86670  0.57170  0.69490  Biso   1.000  C
  C97      1.0000 0.69490  0.86670  0.86670  Biso   1.000  C
  C98      1.0000 0.86670  0.69490  0.57170  Biso   1.000  C
  C99      1.0000 0.86670  0.86670  0.69490  Biso   1.000  C
  C100     1.0000 0.69490  0.57170  0.86670  Biso   1.000  C
  C101     1.0000 0.86670  0.86670  0.57170  Biso   1.000  C
  C102     1.0000 0.57170  0.69490  0.86670  Biso   1.000  C
  C103     1.0000 0.69490  0.86670  0.57170  Biso   1.000  C
  C104     1.0000 0.86670  0.57170  0.86670  Biso   1.000  C
  C105     1.0000 0.57170  0.86670  0.69490  Biso   1.000  C
  C106     1.0000 0.86670  0.69490  0.86670  Biso   1.000  C
  O1       1.0000 0.99150  0.97188  0.86997  Biso   1.000  O
  O2       1.0000 0.56149  0.39084  0.46206  Biso   1.000  O
  O3       1.0000 0.56149  0.56412  0.46206  Biso   1.000  O
  O4       1.0000 0.99150  0.14516  0.86997  Biso   1.000  O
  O5       1.0000 0.99146  0.97180  0.04345  Biso   1.000  O
  O6       1.0000 0.16455  0.97206  0.86984  Biso   1.000  O
  O7       1.0000 0.56153  0.56420  0.28859  Biso   1.000  O
  O8       1.0000 0.38844  0.56394  0.46219  Biso   1.000  O
  O9       1.0000 0.81643  0.81550  0.23714  Biso   1.000  O
  O10      1.0000 0.81548  0.81704  0.00607  Biso   1.000  O
  O11      1.0000 0.81260  0.10803  0.71597  Biso   1.000  O
  O12      1.0000 0.73656  0.42656  0.09489  Biso   1.000  O
  O13      1.0000 0.73751  0.19608  0.32596  Biso   1.000  O
  O14      1.0000 0.74039  0.19408  0.61607  Biso   1.000  O
  O15      1.0000 0.73656  0.72050  0.09489  Biso   1.000  O
  O16      1.0000 0.73751  0.71896  0.32596  Biso   1.000  O
  O17      1.0000 0.74039  0.42797  0.61607  Biso   1.000  O
  O18      1.0000 0.81643  0.10944  0.23714  Biso   1.000  O
  O19      1.0000 0.81548  0.33992  0.00607  Biso   1.000  O
  O20      1.0000 0.81260  0.34191  0.71597  Biso   1.000  O
  O21      1.0000 0.90447  0.88390  0.04791  Biso   1.000  O
  O22      1.0000 0.84058  0.81950  0.10706  Biso   1.000  O
  O23      1.0000 0.80080  0.79413  0.21083  Biso   1.000  O
  O24      1.0000 0.80085  0.79557  0.06918  Biso   1.000  O
  O25      1.0000 0.16547  0.88450  0.78273  Biso   1.000  O
  O26      1.0000 0.79924  0.17104  0.69233  Biso   1.000  O
  O27      1.0000 0.64852  0.39376  0.28412  Biso   1.000  O
  O28      1.0000 0.71241  0.32463  0.22498  Biso   1.000  O
  O29      1.0000 0.75219  0.36325  0.12120  Biso   1.000  O
  O30      1.0000 0.75214  0.22308  0.26286  Biso   1.000  O
  O31      1.0000 0.38752  0.39019  0.54930  Biso   1.000  O
  O32      1.0000 0.75374  0.22010  0.63971  Biso   1.000  O
  O33      1.0000 0.64852  0.65210  0.28412  Biso   1.000  O
  O34      1.0000 0.71241  0.71649  0.22498  Biso   1.000  O
  O35      1.0000 0.75219  0.74186  0.12120  Biso   1.000  O
  O36      1.0000 0.75214  0.74043  0.26286  Biso   1.000  O
  O37      1.0000 0.38752  0.65150  0.54930  Biso   1.000  O
  O38      1.0000 0.75374  0.36496  0.63971  Biso   1.000  O
  O39      1.0000 0.90447  0.14224  0.04791  Biso   1.000  O
  O40      1.0000 0.84058  0.21137  0.10706  Biso   1.000  O
  O41      1.0000 0.80080  0.17274  0.21083  Biso   1.000  O
  O42      1.0000 0.80085  0.31292  0.06918  Biso   1.000  O
  O43      1.0000 0.16547  0.14581  0.78273  Biso   1.000  O
  O44      1.0000 0.79924  0.31590  0.69233  Biso   1.000  O
  O45      1.0000 0.16350  0.88360  0.04781  Biso   1.000  O
  O46      1.0000 0.90109  0.14690  0.78362  Biso   1.000  O
  O47      1.0000 0.84036  0.21159  0.71498  Biso   1.000  O
  O48      1.0000 0.38949  0.65240  0.28422  Biso   1.000  O
  O49      1.0000 0.65190  0.38910  0.54841  Biso   1.000  O
  O50      1.0000 0.71263  0.32441  0.61706  Biso   1.000  O
  O51      1.0000 0.92188  0.90011  0.09163  Biso   1.000  O
  O52      1.0000 0.91989  0.89933  0.96542  Biso   1.000  O
  O53      1.0000 0.21452  0.89993  0.79895  Biso   1.000  O
  O54      1.0000 0.08466  0.89973  0.79885  Biso   1.000  O
  O55      1.0000 0.92068  0.06560  0.79727  Biso   1.000  O
  O56      1.0000 0.63111  0.47111  0.24041  Biso   1.000  O
  O57      1.0000 0.63309  0.34213  0.36662  Biso   1.000  O
  O58      1.0000 0.33846  0.47090  0.53308  Biso   1.000  O
  O59      1.0000 0.46833  0.34074  0.53318  Biso   1.000  O
  O60      1.0000 0.63231  0.34103  0.53476  Biso   1.000  O
  O61      1.0000 0.63111  0.63588  0.24041  Biso   1.000  O
  O62      1.0000 0.63309  0.63667  0.36662  Biso   1.000  O
  O63      1.0000 0.33846  0.63607  0.53308  Biso   1.000  O
  O64      1.0000 0.46833  0.63626  0.53318  Biso   1.000  O
  O65      1.0000 0.63231  0.47040  0.53476  Biso   1.000  O
  O66      1.0000 0.92188  0.06489  0.09163  Biso   1.000  O
  O67      1.0000 0.91989  0.19387  0.96542  Biso   1.000  O
  O68      1.0000 0.21452  0.06510  0.79895  Biso   1.000  O
  O69      1.0000 0.08466  0.19526  0.79885  Biso   1.000  O
  O70      1.0000 0.92068  0.19497  0.79727  Biso   1.000  O
  O71      1.0000 0.03334  0.01653  0.91211  Biso   1.000  O
  O72      1.0000 0.08497  0.90021  0.09311  Biso   1.000  O
  O73      1.0000 0.21424  0.90032  0.96364  Biso   1.000  O
  O74      1.0000 0.51965  0.51946  0.41993  Biso   1.000  O
  O75      1.0000 0.46801  0.63579  0.23892  Biso   1.000  O
