data_image0
_cell_length_a       18.3014
_cell_length_b       18.3014
_cell_length_c       18.3014
_cell_angle_alpha    60
_cell_angle_beta     60
_cell_angle_gamma    60

_symmetry_space_group_name_H-M    "P 1"
_symmetry_int_tables_number       1

loop_
  _symmetry_equiv_pos_as_xyz
  'x, y, z'

loop_
  _atom_site_label
  _atom_site_occupancy
  _atom_site_fract_x
  _atom_site_fract_y
  _atom_site_fract_z
  _atom_site_thermal_displace_type
  _atom_site_B_iso_or_equiv
  _atom_site_type_symbol
  C1       1.0000 0.20640  0.38080  0.20640  Biso   1.000  C
  C2       1.0000 0.38080  0.20640  0.20640  Biso   1.000  C
  C3       1.0000 0.20640  0.20640  0.20640  Biso   1.000  C
  C4       1.0000 0.20640  0.20640  0.38080  Biso   1.000  C
  C5       1.0000 0.61920  0.79360  0.79360  Biso   1.000  C
  C6       1.0000 0.79360  0.61920  0.79360  Biso   1.000  C
  C7       1.0000 0.79360  0.79360  0.79360  Biso   1.000  C
  C8       1.0000 0.79360  0.79360  0.61920  Biso   1.000  C
  C9       1.0000 0.04850  0.56570  0.04850  Biso   1.000  C
  C10      1.0000 0.56570  0.04850  0.33730  Biso   1.000  C
  C11      1.0000 0.04850  0.33730  0.04850  Biso   1.000  C
  C12      1.0000 0.33730  0.04850  0.56570  Biso   1.000  C
  C13      1.0000 0.04850  0.04850  0.33730  Biso   1.000  C
  C14      1.0000 0.56570  0.33730  0.04850  Biso   1.000  C
  C15      1.0000 0.04850  0.04850  0.56570  Biso   1.000  C
  C16      1.0000 0.33730  0.56570  0.04850  Biso   1.000  C
  C17      1.0000 0.04850  0.33730  0.56570  Biso   1.000  C
  C18      1.0000 0.56570  0.04850  0.04850  Biso   1.000  C
  C19      1.0000 0.04850  0.56570  0.33730  Biso   1.000  C
  C20      1.0000 0.33730  0.04850  0.04850  Biso   1.000  C
  C21      1.0000 0.43430  0.95150  0.95150  Biso   1.000  C
  C22      1.0000 0.95150  0.43430  0.66270  Biso   1.000  C
  C23      1.0000 0.66270  0.95150  0.95150  Biso   1.000  C
  C24      1.0000 0.95150  0.66270  0.43430  Biso   1.000  C
  C25      1.0000 0.95150  0.95150  0.66270  Biso   1.000  C
  C26      1.0000 0.66270  0.43430  0.95150  Biso   1.000  C
  C27      1.0000 0.95150  0.95150  0.43430  Biso   1.000  C
  C28      1.0000 0.43430  0.66270  0.95150  Biso   1.000  C
  C29      1.0000 0.66270  0.95150  0.43430  Biso   1.000  C
  C30      1.0000 0.95150  0.43430  0.95150  Biso   1.000  C
  C31      1.0000 0.43430  0.95150  0.66270  Biso   1.000  C
  C32      1.0000 0.95150  0.66270  0.95150  Biso   1.000  C
  C33      1.0000 0.02640  0.53920  0.02640  Biso   1.000  C
  C34      1.0000 0.53920  0.02640  0.40800  Biso   1.000  C
  C35      1.0000 0.02640  0.40800  0.02640  Biso   1.000  C
  C36      1.0000 0.40800  0.02640  0.53920  Biso   1.000  C
  C37      1.0000 0.02640  0.02640  0.40800  Biso   1.000  C
  C38      1.0000 0.53920  0.40800  0.02640  Biso   1.000  C
  C39      1.0000 0.02640  0.02640  0.53920  Biso   1.000  C
  C40      1.0000 0.40800  0.53920  0.02640  Biso   1.000  C
  C41      1.0000 0.02640  0.40800  0.53920  Biso   1.000  C
  C42      1.0000 0.53920  0.02640  0.02640  Biso   1.000  C
  C43      1.0000 0.02640  0.53920  0.40800  Biso   1.000  C
  C44      1.0000 0.40800  0.02640  0.02640  Biso   1.000  C
  C45      1.0000 0.46080  0.97360  0.97360  Biso   1.000  C
  C46      1.0000 0.97360  0.46080  0.59200  Biso   1.000  C
  C47      1.0000 0.59200  0.97360  0.97360  Biso   1.000  C
  C48      1.0000 0.97360  0.59200  0.46080  Biso   1.000  C
  C49      1.0000 0.97360  0.97360  0.59200  Biso   1.000  C
  C50      1.0000 0.59200  0.46080  0.97360  Biso   1.000  C
  C51      1.0000 0.97360  0.97360  0.46080  Biso   1.000  C
  C52      1.0000 0.46080  0.59200  0.97360  Biso   1.000  C
  C53      1.0000 0.59200  0.97360  0.46080  Biso   1.000  C
  C54      1.0000 0.97360  0.46080  0.97360  Biso   1.000  C
  C55      1.0000 0.46080  0.97360  0.59200  Biso   1.000  C
  C56      1.0000 0.97360  0.59200  0.97360  Biso   1.000  C
  C57      1.0000 0.11050  0.38950  0.11050  Biso   1.000  C
  C58      1.0000 0.05430  0.44570  0.05430  Biso   1.000  C
  C59      1.0000 0.38950  0.11050  0.38950  Biso   1.000  C
  C60      1.0000 0.44570  0.05430  0.44570  Biso   1.000  C
  C61      1.0000 0.11050  0.11050  0.38950  Biso   1.000  C
  C62      1.0000 0.05430  0.05430  0.44570  Biso   1.000  C
  C63      1.0000 0.38950  0.38950  0.11050  Biso   1.000  C
  C64      1.0000 0.44570  0.44570  0.05430  Biso   1.000  C
  C65      1.0000 0.11050  0.38950  0.38950  Biso   1.000  C
  C66      1.0000 0.05430  0.44570  0.44570  Biso   1.000  C
  C67      1.0000 0.38950  0.11050  0.11050  Biso   1.000  C
  C68      1.0000 0.44570  0.05430  0.05430  Biso   1.000  C
  C69      1.0000 0.61050  0.88950  0.88950  Biso   1.000  C
  C70      1.0000 0.55430  0.94570  0.94570  Biso   1.000  C
  C71      1.0000 0.88950  0.61050  0.61050  Biso   1.000  C
  C72      1.0000 0.94570  0.55430  0.55430  Biso   1.000  C
  C73      1.0000 0.88950  0.88950  0.61050  Biso   1.000  C
  C74      1.0000 0.94570  0.94570  0.55430  Biso   1.000  C
  C75      1.0000 0.61050  0.61050  0.88950  Biso   1.000  C
  C76      1.0000 0.55430  0.55430  0.94570  Biso   1.000  C
  C77      1.0000 0.61050  0.88950  0.61050  Biso   1.000  C
  C78      1.0000 0.55430  0.94570  0.55430  Biso   1.000  C
  C79      1.0000 0.88950  0.61050  0.88950  Biso   1.000  C
  C80      1.0000 0.94570  0.55430  0.94570  Biso   1.000  C
  C81      1.0000 0.25000  0.25000  0.25000  Biso   1.000  C
  C82      1.0000 0.75000  0.75000  0.75000  Biso   1.000  C
  C83      1.0000 0.13330  0.42830  0.13330  Biso   1.000  C
  C84      1.0000 0.42830  0.13330  0.30510  Biso   1.000  C
  C85      1.0000 0.13330  0.30510  0.13330  Biso   1.000  C
  C86      1.0000 0.30510  0.13330  0.42830  Biso   1.000  C
  C87      1.0000 0.13330  0.13330  0.30510  Biso   1.000  C
  C88      1.0000 0.42830  0.30510  0.13330  Biso   1.000  C
  C89      1.0000 0.13330  0.13330  0.42830  Biso   1.000  C
  C90      1.0000 0.30510  0.42830  0.13330  Biso   1.000  C
  C91      1.0000 0.13330  0.30510  0.42830  Biso   1.000  C
  C92      1.0000 0.42830  0.13330  0.13330  Biso   1.000  C
  C93      1.0000 0.13330  0.42830  0.30510  Biso   1.000  C
  C94      1.0000 0.30510  0.13330  0.13330  Biso   1.000  C
  C95      1.0000 0.57170  0.86670  0.86670  Biso   1.000  C
  C96      1.0000 0.86670  0.57170  0.69490  Biso   1.000  C
  C97      1.0000 0.69490  0.86670  0.86670  Biso   1.000  C
  C98      1.0000 0.86670  0.69490  0.57170  Biso   1.000  C
  C99      1.0000 0.86670  0.86670  0.69490  Biso   1.000  C
  C100     1.0000 0.69490  0.57170  0.86670  Biso   1.000  C
  C101     1.0000 0.86670  0.86670  0.57170  Biso   1.000  C
  C102     1.0000 0.57170  0.69490  0.86670  Biso   1.000  C
  C103     1.0000 0.69490  0.86670  0.57170  Biso   1.000  C
  C104     1.0000 0.86670  0.57170  0.86670  Biso   1.000  C
  C105     1.0000 0.57170  0.86670  0.69490  Biso   1.000  C
  C106     1.0000 0.86670  0.69490  0.86670  Biso   1.000  C
  O1       1.0000 0.99150  0.97188  0.86997  Biso   1.000  O
  O2       1.0000 0.99154  0.14374  0.86992  Biso   1.000  O
  O3       1.0000 0.16340  0.97188  0.86997  Biso   1.000  O
  O4       1.0000 0.99155  0.97183  0.04183  Biso   1.000  O
  O5       1.0000 0.57337  0.56192  0.46001  Biso   1.000  O
  O6       1.0000 0.57332  0.39006  0.46006  Biso   1.000  O
  O7       1.0000 0.40146  0.56192  0.46001  Biso   1.000  O
  O8       1.0000 0.57332  0.56196  0.28816  Biso   1.000  O
  O9       1.0000 0.81256  0.17112  0.69198  Biso   1.000  O
  O10      1.0000 0.19100  0.79368  0.68998  Biso   1.000  O
  O11      1.0000 0.81196  0.79467  0.06922  Biso   1.000  O
  O12      1.0000 0.81357  0.30970  0.69099  Biso   1.000  O
  O13      1.0000 0.81157  0.31070  0.06942  Biso   1.000  O
  O14      1.0000 0.19081  0.30951  0.69038  Biso   1.000  O
  O15      1.0000 0.32110  0.79389  0.06921  Biso   1.000  O
  O16      1.0000 0.32210  0.79189  0.69177  Biso   1.000  O
  O17      1.0000 0.32090  0.17113  0.69276  Biso   1.000  O
  O18      1.0000 0.18251  0.79289  0.20780  Biso   1.000  O
  O19      1.0000 0.80506  0.17132  0.20880  Biso   1.000  O
  O20      1.0000 0.80606  0.79228  0.20761  Biso   1.000  O
  O21      1.0000 0.75231  0.36268  0.63801  Biso   1.000  O
  O22      1.0000 0.37387  0.74012  0.64000  Biso   1.000  O
  O23      1.0000 0.75291  0.73913  0.26077  Biso   1.000  O
  O24      1.0000 0.75130  0.22410  0.63900  Biso   1.000  O
  O25      1.0000 0.75329  0.22309  0.26057  Biso   1.000  O
  O26      1.0000 0.37406  0.22428  0.63960  Biso   1.000  O
  O27      1.0000 0.24377  0.73991  0.26078  Biso   1.000  O
  O28      1.0000 0.24276  0.74191  0.63822  Biso   1.000  O
  O29      1.0000 0.24396  0.36267  0.63722  Biso   1.000  O
  O30      1.0000 0.38235  0.74091  0.12218  Biso   1.000  O
  O31      1.0000 0.75980  0.36247  0.12118  Biso   1.000  O
  O32      1.0000 0.75880  0.74151  0.12237  Biso   1.000  O
  O33      1.0000 0.83992  0.20941  0.71835  Biso   1.000  O
  O34      1.0000 0.89811  0.15122  0.77654  Biso   1.000  O
  O35      1.0000 0.22908  0.82026  0.10750  Biso   1.000  O
  O36      1.0000 0.17088  0.87845  0.04930  Biso   1.000  O
  O37      1.0000 0.72495  0.32439  0.61164  Biso   1.000  O
  O38      1.0000 0.66675  0.38258  0.55344  Biso   1.000  O
  O39      1.0000 0.33579  0.71354  0.22249  Biso   1.000  O
  O40      1.0000 0.39398  0.65534  0.28068  Biso   1.000  O
  O41      1.0000 0.83973  0.82006  0.10770  Biso   1.000  O
  O42      1.0000 0.89764  0.87798  0.04978  Biso   1.000  O
  O43      1.0000 0.22927  0.20961  0.71815  Biso   1.000  O
  O44      1.0000 0.17135  0.15169  0.77606  Biso   1.000  O
  O45      1.0000 0.72514  0.71374  0.22229  Biso   1.000  O
  O46      1.0000 0.66722  0.65582  0.28021  Biso   1.000  O
  O47      1.0000 0.33560  0.32419  0.61184  Biso   1.000  O
  O48      1.0000 0.39351  0.38211  0.55392  Biso   1.000  O
  O49      1.0000 0.22947  0.81986  0.71795  Biso   1.000  O
  O50      1.0000 0.17156  0.87777  0.77587  Biso   1.000  O
  O51      1.0000 0.83952  0.20981  0.10789  Biso   1.000  O
  O52      1.0000 0.89744  0.15189  0.04998  Biso   1.000  O
  O53      1.0000 0.33539  0.71394  0.61203  Biso   1.000  O
  O54      1.0000 0.39331  0.65602  0.55412  Biso   1.000  O
  O55      1.0000 0.72535  0.32399  0.22209  Biso   1.000  O
  O56      1.0000 0.66743  0.38190  0.28001  Biso   1.000  O
  O57      1.0000 0.92053  0.06767  0.79737  Biso   1.000  O
  O58      1.0000 0.91861  0.90086  0.96659  Biso   1.000  O
  O59      1.0000 0.08692  0.90051  0.79778  Biso   1.000  O
  O60      1.0000 0.91894  0.19152  0.79895  Biso   1.000  O
  O61      1.0000 0.08816  0.19102  0.79703  Biso   1.000  O
  O62      1.0000 0.91935  0.19188  0.96534  Biso   1.000  O
  O63      1.0000 0.21118  0.89928  0.96576  Biso   1.000  O
  O64      1.0000 0.21068  0.06850  0.79895  Biso   1.000  O
  O65      1.0000 0.21154  0.89969  0.79860  Biso   1.000  O
  O66      1.0000 0.08734  0.90086  0.08961  Biso   1.000  O
  O67      1.0000 0.92053  0.89894  0.08911  Biso   1.000  O
  O68      1.0000 0.92017  0.06726  0.08996  Biso   1.000  O
  O69      1.0000 0.64434  0.46612  0.53262  Biso   1.000  O
  O70      1.0000 0.64626  0.63293  0.36339  Biso   1.000  O
  O71      1.0000 0.47794  0.63329  0.53220  Biso   1.000  O
  O72      1.0000 0.64593  0.34228  0.53103  Biso   1.000  O
  O73      1.0000 0.47670  0.34277  0.53295  Biso   1.000  O
  O74      1.0000 0.64551  0.34192  0.36464  Biso   1.000  O
  O75      1.0000 0.35368  0.63452  0.36422  Biso   1.000  O
  O76      1.0000 0.35418  0.46529  0.53103  Biso   1.000  O
  O77      1.0000 0.35332  0.63410  0.53139  Biso   1.000  O
  O78      1.0000 0.47753  0.63293  0.24038  Biso   1.000  O
  O79      1.0000 0.64434  0.63486  0.24087  Biso   1.000  O
  O80      1.0000 0.64470  0.46654  0.24002  Biso   1.000  O
  O81      1.0000 0.03450  0.01483  0.91292  Biso   1.000  O
  O82      1.0000 0.53037  0.51896  0.41706  Biso   1.000  O
  O83      1.0000 0.11503  0.81644  0.71128  Biso   1.000  O
  O84      1.0000 0.35401  0.81318  0.71453  Biso   1.000  O
  O85      1.0000 0.44984  0.71736  0.61871  Biso   1.000  O
  O86      1.0000 0.21085  0.72061  0.61546  Biso   1.000  O
  O87      1.0000 0.35282  0.09517  0.71577  Biso   1.000  O
  O88      1.0000 0.45002  0.19237  0.61857  Biso   1.000  O
  O89      1.0000 0.83299  0.81768  0.99326  Biso   1.000  O
  O90      1.0000 0.73579  0.72048  0.09046  Biso   1.000  O
  O91      1.0000 0.83600  0.34162  0.71259  Biso   1.000  O
  O92      1.0000 0.83286  0.34262  0.99345  Biso   1.000  O
  O93      1.0000 0.45832  0.71930  0.09026  Biso   1.000  O
  O94      1.0000 0.73704  0.43844  0.08927  Biso   1.000  O
  O95      1.0000 0.11485  0.34143  0.71141  Biso   1.000  O
  O96      1.0000 0.21205  0.43862  0.61422  Biso   1.000  O
  O97      1.0000 0.82907  0.81332  0.23953  Biso   1.000  O
  O98      1.0000 0.73187  0.71612  0.33672  Biso   1.000  O
  O99      1.0000 0.21184  0.71748  0.33674  Biso   1.000  O
  O100     1.0000 0.82782  0.09536  0.24072  Biso   1.000  O
  O101     1.0000 0.73200  0.19118  0.33653  Biso   1.000  O
  O102     1.0000 0.10654  0.81450  0.23972  Biso   1.000  O
  O103     1.0000 0.72887  0.19217  0.61739  Biso   1.000  O
  O104     1.0000 0.83417  0.09515  0.71441  Biso   1.000  O
  O105     1.0000 0.73070  0.43864  0.61557  Biso   1.000  O
