data_image0
_cell_length_a       18.3014
_cell_length_b       18.3014
_cell_length_c       18.3014
_cell_angle_alpha    60
_cell_angle_beta     60
_cell_angle_gamma    60

_symmetry_space_group_name_H-M    "P 1"
_symmetry_int_tables_number       1

loop_
  _symmetry_equiv_pos_as_xyz
  'x, y, z'

loop_
  _atom_site_label
  _atom_site_occupancy
  _atom_site_fract_x
  _atom_site_fract_y
  _atom_site_fract_z
  _atom_site_thermal_displace_type
  _atom_site_B_iso_or_equiv
  _atom_site_type_symbol
  C1       1.0000 0.20640  0.38080  0.20640  Biso   1.000  C
  C2       1.0000 0.38080  0.20640  0.20640  Biso   1.000  C
  C3       1.0000 0.20640  0.20640  0.20640  Biso   1.000  C
  C4       1.0000 0.20640  0.20640  0.38080  Biso   1.000  C
  C5       1.0000 0.61920  0.79360  0.79360  Biso   1.000  C
  C6       1.0000 0.79360  0.61920  0.79360  Biso   1.000  C
  C7       1.0000 0.79360  0.79360  0.79360  Biso   1.000  C
  C8       1.0000 0.79360  0.79360  0.61920  Biso   1.000  C
  C9       1.0000 0.04850  0.56570  0.04850  Biso   1.000  C
  C10      1.0000 0.56570  0.04850  0.33730  Biso   1.000  C
  C11      1.0000 0.04850  0.33730  0.04850  Biso   1.000  C
  C12      1.0000 0.33730  0.04850  0.56570  Biso   1.000  C
  C13      1.0000 0.04850  0.04850  0.33730  Biso   1.000  C
  C14      1.0000 0.56570  0.33730  0.04850  Biso   1.000  C
  C15      1.0000 0.04850  0.04850  0.56570  Biso   1.000  C
  C16      1.0000 0.33730  0.56570  0.04850  Biso   1.000  C
  C17      1.0000 0.04850  0.33730  0.56570  Biso   1.000  C
  C18      1.0000 0.56570  0.04850  0.04850  Biso   1.000  C
  C19      1.0000 0.04850  0.56570  0.33730  Biso   1.000  C
  C20      1.0000 0.33730  0.04850  0.04850  Biso   1.000  C
  C21      1.0000 0.43430  0.95150  0.95150  Biso   1.000  C
  C22      1.0000 0.95150  0.43430  0.66270  Biso   1.000  C
  C23      1.0000 0.66270  0.95150  0.95150  Biso   1.000  C
  C24      1.0000 0.95150  0.66270  0.43430  Biso   1.000  C
  C25      1.0000 0.95150  0.95150  0.66270  Biso   1.000  C
  C26      1.0000 0.66270  0.43430  0.95150  Biso   1.000  C
  C27      1.0000 0.95150  0.95150  0.43430  Biso   1.000  C
  C28      1.0000 0.43430  0.66270  0.95150  Biso   1.000  C
  C29      1.0000 0.66270  0.95150  0.43430  Biso   1.000  C
  C30      1.0000 0.95150  0.43430  0.95150  Biso   1.000  C
  C31      1.0000 0.43430  0.95150  0.66270  Biso   1.000  C
  C32      1.0000 0.95150  0.66270  0.95150  Biso   1.000  C
  C33      1.0000 0.02640  0.53920  0.02640  Biso   1.000  C
  C34      1.0000 0.53920  0.02640  0.40800  Biso   1.000  C
  C35      1.0000 0.02640  0.40800  0.02640  Biso   1.000  C
  C36      1.0000 0.40800  0.02640  0.53920  Biso   1.000  C
  C37      1.0000 0.02640  0.02640  0.40800  Biso   1.000  C
  C38      1.0000 0.53920  0.40800  0.02640  Biso   1.000  C
  C39      1.0000 0.02640  0.02640  0.53920  Biso   1.000  C
  C40      1.0000 0.40800  0.53920  0.02640  Biso   1.000  C
  C41      1.0000 0.02640  0.40800  0.53920  Biso   1.000  C
  C42      1.0000 0.53920  0.02640  0.02640  Biso   1.000  C
  C43      1.0000 0.02640  0.53920  0.40800  Biso   1.000  C
  C44      1.0000 0.40800  0.02640  0.02640  Biso   1.000  C
  C45      1.0000 0.46080  0.97360  0.97360  Biso   1.000  C
  C46      1.0000 0.97360  0.46080  0.59200  Biso   1.000  C
  C47      1.0000 0.59200  0.97360  0.97360  Biso   1.000  C
  C48      1.0000 0.97360  0.59200  0.46080  Biso   1.000  C
  C49      1.0000 0.97360  0.97360  0.59200  Biso   1.000  C
  C50      1.0000 0.59200  0.46080  0.97360  Biso   1.000  C
  C51      1.0000 0.97360  0.97360  0.46080  Biso   1.000  C
  C52      1.0000 0.46080  0.59200  0.97360  Biso   1.000  C
  C53      1.0000 0.59200  0.97360  0.46080  Biso   1.000  C
  C54      1.0000 0.97360  0.46080  0.97360  Biso   1.000  C
  C55      1.0000 0.46080  0.97360  0.59200  Biso   1.000  C
  C56      1.0000 0.97360  0.59200  0.97360  Biso   1.000  C
  C57      1.0000 0.11050  0.38950  0.11050  Biso   1.000  C
  C58      1.0000 0.05430  0.44570  0.05430  Biso   1.000  C
  C59      1.0000 0.38950  0.11050  0.38950  Biso   1.000  C
  C60      1.0000 0.44570  0.05430  0.44570  Biso   1.000  C
  C61      1.0000 0.11050  0.11050  0.38950  Biso   1.000  C
  C62      1.0000 0.05430  0.05430  0.44570  Biso   1.000  C
  C63      1.0000 0.38950  0.38950  0.11050  Biso   1.000  C
  C64      1.0000 0.44570  0.44570  0.05430  Biso   1.000  C
  C65      1.0000 0.11050  0.38950  0.38950  Biso   1.000  C
  C66      1.0000 0.05430  0.44570  0.44570  Biso   1.000  C
  C67      1.0000 0.38950  0.11050  0.11050  Biso   1.000  C
  C68      1.0000 0.44570  0.05430  0.05430  Biso   1.000  C
  C69      1.0000 0.61050  0.88950  0.88950  Biso   1.000  C
  C70      1.0000 0.55430  0.94570  0.94570  Biso   1.000  C
  C71      1.0000 0.88950  0.61050  0.61050  Biso   1.000  C
  C72      1.0000 0.94570  0.55430  0.55430  Biso   1.000  C
  C73      1.0000 0.88950  0.88950  0.61050  Biso   1.000  C
  C74      1.0000 0.94570  0.94570  0.55430  Biso   1.000  C
  C75      1.0000 0.61050  0.61050  0.88950  Biso   1.000  C
  C76      1.0000 0.55430  0.55430  0.94570  Biso   1.000  C
  C77      1.0000 0.61050  0.88950  0.61050  Biso   1.000  C
  C78      1.0000 0.55430  0.94570  0.55430  Biso   1.000  C
  C79      1.0000 0.88950  0.61050  0.88950  Biso   1.000  C
  C80      1.0000 0.94570  0.55430  0.94570  Biso   1.000  C
  C81      1.0000 0.25000  0.25000  0.25000  Biso   1.000  C
  C82      1.0000 0.75000  0.75000  0.75000  Biso   1.000  C
  C83      1.0000 0.13330  0.42830  0.13330  Biso   1.000  C
  C84      1.0000 0.42830  0.13330  0.30510  Biso   1.000  C
  C85      1.0000 0.13330  0.30510  0.13330  Biso   1.000  C
  C86      1.0000 0.30510  0.13330  0.42830  Biso   1.000  C
  C87      1.0000 0.13330  0.13330  0.30510  Biso   1.000  C
  C88      1.0000 0.42830  0.30510  0.13330  Biso   1.000  C
  C89      1.0000 0.13330  0.13330  0.42830  Biso   1.000  C
  C90      1.0000 0.30510  0.42830  0.13330  Biso   1.000  C
  C91      1.0000 0.13330  0.30510  0.42830  Biso   1.000  C
  C92      1.0000 0.42830  0.13330  0.13330  Biso   1.000  C
  C93      1.0000 0.13330  0.42830  0.30510  Biso   1.000  C
  C94      1.0000 0.30510  0.13330  0.13330  Biso   1.000  C
  C95      1.0000 0.57170  0.86670  0.86670  Biso   1.000  C
  C96      1.0000 0.86670  0.57170  0.69490  Biso   1.000  C
  C97      1.0000 0.69490  0.86670  0.86670  Biso   1.000  C
  C98      1.0000 0.86670  0.69490  0.57170  Biso   1.000  C
  C99      1.0000 0.86670  0.86670  0.69490  Biso   1.000  C
  C100     1.0000 0.69490  0.57170  0.86670  Biso   1.000  C
  C101     1.0000 0.86670  0.86670  0.57170  Biso   1.000  C
  C102     1.0000 0.57170  0.69490  0.86670  Biso   1.000  C
  C103     1.0000 0.69490  0.86670  0.57170  Biso   1.000  C
  C104     1.0000 0.86670  0.57170  0.86670  Biso   1.000  C
  C105     1.0000 0.57170  0.86670  0.69490  Biso   1.000  C
  C106     1.0000 0.86670  0.69490  0.86670  Biso   1.000  C
  O1       1.0000 0.00000  0.00000  0.00000  Biso   1.000  O
  O2       1.0000 1.00000  0.00000  0.82599  Biso   1.000  O
  O3       1.0000 1.00000  0.82599  0.00000  Biso   1.000  O
  O4       1.0000 0.82599  0.00000  0.00000  Biso   1.000  O
  O5       1.0000 0.41307  0.41305  0.41305  Biso   1.000  O
  O6       1.0000 0.41307  0.41305  0.58705  Biso   1.000  O
  O7       1.0000 0.58707  0.41305  0.41305  Biso   1.000  O
  O8       1.0000 0.41307  0.58705  0.41305  Biso   1.000  O
  O9       1.0000 0.16123  0.16122  0.86279  Biso   1.000  O
  O10      1.0000 0.16123  0.16122  0.64087  Biso   1.000  O
  O11      1.0000 0.86280  0.64087  0.16122  Biso   1.000  O
  O12      1.0000 0.64088  0.86278  0.16122  Biso   1.000  O
  O13      1.0000 0.16123  0.86279  0.64087  Biso   1.000  O
  O14      1.0000 0.16123  0.64087  0.86279  Biso   1.000  O
  O15      1.0000 0.86279  0.16122  0.16122  Biso   1.000  O
  O16      1.0000 0.64088  0.16122  0.16122  Biso   1.000  O
  O17      1.0000 0.16123  0.64087  0.16122  Biso   1.000  O
  O18      1.0000 0.16123  0.86278  0.16122  Biso   1.000  O
  O19      1.0000 0.86279  0.16122  0.64087  Biso   1.000  O
  O20      1.0000 0.64088  0.16122  0.86279  Biso   1.000  O
  O21      1.0000 0.25184  0.25183  0.55026  Biso   1.000  O
  O22      1.0000 0.25184  0.25183  0.77218  Biso   1.000  O
  O23      1.0000 0.77219  0.55026  0.25183  Biso   1.000  O
  O24      1.0000 0.55027  0.77218  0.25183  Biso   1.000  O
  O25      1.0000 0.55027  0.25183  0.77218  Biso   1.000  O
  O26      1.0000 0.77219  0.25183  0.55026  Biso   1.000  O
  O27      1.0000 0.25184  0.55026  0.25183  Biso   1.000  O
  O28      1.0000 0.25184  0.77218  0.25183  Biso   1.000  O
  O29      1.0000 0.77219  0.25183  0.25183  Biso   1.000  O
  O30      1.0000 0.55027  0.25183  0.25183  Biso   1.000  O
  O31      1.0000 0.25184  0.55026  0.77218  Biso   1.000  O
  O32      1.0000 0.25184  0.77218  0.55026  Biso   1.000  O
  O33      1.0000 0.18008  0.18007  0.79791  Biso   1.000  O
  O34      1.0000 0.18008  0.18007  0.66804  Biso   1.000  O
  O35      1.0000 0.79792  0.66804  0.18007  Biso   1.000  O
  O36      1.0000 0.66805  0.79791  0.18007  Biso   1.000  O
  O37      1.0000 0.18008  0.79791  0.66804  Biso   1.000  O
  O38      1.0000 0.18008  0.66804  0.79791  Biso   1.000  O
  O39      1.0000 0.79792  0.18007  0.18007  Biso   1.000  O
  O40      1.0000 0.66805  0.18007  0.18007  Biso   1.000  O
  O41      1.0000 0.18008  0.66804  0.18007  Biso   1.000  O
  O42      1.0000 0.18008  0.79791  0.18007  Biso   1.000  O
  O43      1.0000 0.79792  0.18007  0.66804  Biso   1.000  O
  O44      1.0000 0.66805  0.18007  0.79791  Biso   1.000  O
  O45      1.0000 0.23299  0.23298  0.61514  Biso   1.000  O
  O46      1.0000 0.23299  0.23298  0.74500  Biso   1.000  O
  O47      1.0000 0.74501  0.61514  0.23298  Biso   1.000  O
  O48      1.0000 0.61515  0.74500  0.23298  Biso   1.000  O
  O49      1.0000 0.61515  0.23298  0.74500  Biso   1.000  O
  O50      1.0000 0.74501  0.23298  0.61514  Biso   1.000  O
  O51      1.0000 0.23299  0.61514  0.23298  Biso   1.000  O
  O52      1.0000 0.23299  0.74500  0.23298  Biso   1.000  O
  O53      1.0000 0.74501  0.23298  0.23298  Biso   1.000  O
  O54      1.0000 0.61515  0.23298  0.23298  Biso   1.000  O
  O55      1.0000 0.23299  0.61514  0.74500  Biso   1.000  O
  O56      1.0000 0.23299  0.74500  0.61514  Biso   1.000  O
  O57      1.0000 0.09482  0.09481  0.81818  Biso   1.000  O
  O58      1.0000 0.15276  0.15275  0.76024  Biso   1.000  O
  O59      1.0000 0.81819  0.81818  0.09481  Biso   1.000  O
  O60      1.0000 0.76025  0.76024  0.15275  Biso   1.000  O
  O61      1.0000 0.09482  0.81818  0.81818  Biso   1.000  O
  O62      1.0000 0.15276  0.76024  0.76024  Biso   1.000  O
  O63      1.0000 0.81819  0.09481  0.09481  Biso   1.000  O
  O64      1.0000 0.76025  0.15275  0.15275  Biso   1.000  O
  O65      1.0000 0.09482  0.81818  0.09481  Biso   1.000  O
  O66      1.0000 0.15276  0.76024  0.15275  Biso   1.000  O
  O67      1.0000 0.81819  0.09481  0.81818  Biso   1.000  O
  O68      1.0000 0.76025  0.15275  0.76024  Biso   1.000  O
  O69      1.0000 0.31824  0.31823  0.59487  Biso   1.000  O
  O70      1.0000 0.26031  0.26030  0.65280  Biso   1.000  O
  O71      1.0000 0.59487  0.59487  0.31823  Biso   1.000  O
  O72      1.0000 0.65281  0.65280  0.26030  Biso   1.000  O
  O73      1.0000 0.59487  0.31823  0.59487  Biso   1.000  O
  O74      1.0000 0.65281  0.26030  0.65280  Biso   1.000  O
  O75      1.0000 0.31824  0.59487  0.31823  Biso   1.000  O
  O76      1.0000 0.26031  0.65280  0.26030  Biso   1.000  O
  O77      1.0000 0.59487  0.31823  0.31823  Biso   1.000  O
  O78      1.0000 0.65281  0.26030  0.26030  Biso   1.000  O
  O79      1.0000 0.31824  0.59486  0.59487  Biso   1.000  O
  O80      1.0000 0.26031  0.65280  0.65280  Biso   1.000  O
  O81      1.0000 0.07265  0.07264  0.90176  Biso   1.000  O
  O82      1.0000 0.07265  0.07264  0.77895  Biso   1.000  O
  O83      1.0000 0.90177  0.77895  0.07264  Biso   1.000  O
  O84      1.0000 0.77896  0.90176  0.07264  Biso   1.000  O
  O85      1.0000 0.07265  0.90176  0.77895  Biso   1.000  O
  O86      1.0000 0.07265  0.77895  0.90176  Biso   1.000  O
  O87      1.0000 0.90177  0.07264  0.07264  Biso   1.000  O
  O88      1.0000 0.77896  0.07264  0.07264  Biso   1.000  O
  O89      1.0000 0.07265  0.77895  0.07264  Biso   1.000  O
  O90      1.0000 0.07265  0.90176  0.07264  Biso   1.000  O
  O91      1.0000 0.90177  0.07264  0.77895  Biso   1.000  O
  O92      1.0000 0.77896  0.07264  0.90176  Biso   1.000  O
  O93      1.0000 0.34042  0.34041  0.51129  Biso   1.000  O
  O94      1.0000 0.34042  0.34041  0.63410  Biso   1.000  O
  O95      1.0000 0.63411  0.51129  0.34041  Biso   1.000  O
  O96      1.0000 0.51130  0.63410  0.34041  Biso   1.000  O
  O97      1.0000 0.51130  0.34041  0.63410  Biso   1.000  O
  O98      1.0000 0.63411  0.34041  0.51129  Biso   1.000  O
  O99      1.0000 0.34042  0.51129  0.34041  Biso   1.000  O
  O100     1.0000 0.34042  0.63410  0.34041  Biso   1.000  O
  O101     1.0000 0.63411  0.34041  0.34041  Biso   1.000  O
  O102     1.0000 0.51130  0.34041  0.34041  Biso   1.000  O
  O103     1.0000 0.34042  0.51129  0.63410  Biso   1.000  O
  O104     1.0000 0.34042  0.63410  0.51129  Biso   1.000  O
  O105     1.0000 0.95651  0.95650  0.95650  Biso   1.000  O
