data_image0
_cell_length_a       18.101
_cell_length_b       18.101
_cell_length_c       18.101
_cell_angle_alpha    60.0036
_cell_angle_beta     60.0036
_cell_angle_gamma    60.0001

_symmetry_space_group_name_H-M    "P 1"
_symmetry_int_tables_number       1

loop_
  _symmetry_equiv_pos_as_xyz
  'x, y, z'

loop_
  _atom_site_label
  _atom_site_occupancy
  _atom_site_fract_x
  _atom_site_fract_y
  _atom_site_fract_z
  _atom_site_thermal_displace_type
  _atom_site_B_iso_or_equiv
  _atom_site_type_symbol
  Zn1      1.0000 0.11865  0.29385  0.29380  Biso   1.000  Zn
  Zn2      1.0000 0.70615  0.88135  0.70620  Biso   1.000  Zn
  Zn3      1.0000 0.88135  0.70615  0.70620  Biso   1.000  Zn
  Zn4      1.0000 0.29385  0.11865  0.29380  Biso   1.000  Zn
  Zn5      1.0000 0.29392  0.29392  0.11841  Biso   1.000  Zn
  Zn6      1.0000 0.29367  0.29367  0.29393  Biso   1.000  Zn
  Zn7      1.0000 0.70608  0.70608  0.88159  Biso   1.000  Zn
  Zn8      1.0000 0.70633  0.70633  0.70607  Biso   1.000  Zn
  H1       1.0000 0.15480  0.45200  0.93360  Biso   1.000  H
  H2       1.0000 0.93280  0.45040  0.15620  Biso   1.000  H
  H3       1.0000 0.93080  0.15620  0.44950  Biso   1.000  H
  H4       1.0000 0.54800  0.84520  0.06640  Biso   1.000  H
  H5       1.0000 0.54960  0.06720  0.84380  Biso   1.000  H
  H6       1.0000 0.84380  0.06920  0.55050  Biso   1.000  H
  H7       1.0000 0.84520  0.54800  0.06640  Biso   1.000  H
  H8       1.0000 0.06720  0.54960  0.84380  Biso   1.000  H
  H9       1.0000 0.06920  0.84380  0.55050  Biso   1.000  H
  H10      1.0000 0.45200  0.15480  0.93360  Biso   1.000  H
  H11      1.0000 0.45040  0.93280  0.15620  Biso   1.000  H
  H12      1.0000 0.15620  0.93080  0.44950  Biso   1.000  H
  C1       1.0000 0.12160  0.38280  0.11390  Biso   1.000  C
  C2       1.0000 0.05170  0.44790  0.05410  Biso   1.000  C
  C3       1.0000 0.09080  0.47360  0.96020  Biso   1.000  C
  C4       1.0000 0.96010  0.47210  0.09240  Biso   1.000  C
  C5       1.0000 0.11800  0.38220  0.38200  Biso   1.000  C
  C6       1.0000 0.95710  0.09250  0.47340  Biso   1.000  C
  C7       1.0000 0.61720  0.87840  0.88610  Biso   1.000  C
  C8       1.0000 0.55210  0.94830  0.94590  Biso   1.000  C
  C9       1.0000 0.52640  0.90920  0.03980  Biso   1.000  C
  C10      1.0000 0.52790  0.03990  0.90760  Biso   1.000  C
  C11      1.0000 0.61780  0.88200  0.61800  Biso   1.000  C
  C12      1.0000 0.90750  0.04290  0.52660  Biso   1.000  C
  C13      1.0000 0.87840  0.61720  0.88610  Biso   1.000  C
  C14      1.0000 0.94830  0.55210  0.94590  Biso   1.000  C
  C15      1.0000 0.90920  0.52640  0.03980  Biso   1.000  C
  C16      1.0000 0.03990  0.52790  0.90760  Biso   1.000  C
  C17      1.0000 0.88200  0.61780  0.61800  Biso   1.000  C
  C18      1.0000 0.04290  0.90750  0.52660  Biso   1.000  C
  C19      1.0000 0.38280  0.12160  0.11390  Biso   1.000  C
  C20      1.0000 0.44790  0.05170  0.05410  Biso   1.000  C
  C21      1.0000 0.47360  0.09080  0.96020  Biso   1.000  C
  C22      1.0000 0.47210  0.96010  0.09240  Biso   1.000  C
  C23      1.0000 0.38220  0.11800  0.38200  Biso   1.000  C
  C24      1.0000 0.09250  0.95710  0.47340  Biso   1.000  C
  C25      1.0000 0.38310  0.38310  0.11400  Biso   1.000  C
  C26      1.0000 0.11690  0.11690  0.38110  Biso   1.000  C
  C27      1.0000 0.05150  0.05150  0.45050  Biso   1.000  C
  C28      1.0000 0.61690  0.61690  0.88600  Biso   1.000  C
  C29      1.0000 0.88310  0.88310  0.61890  Biso   1.000  C
  C30      1.0000 0.94850  0.94850  0.54950  Biso   1.000  C
  O1       1.0000 0.19980  0.36640  0.06970  Biso   1.000  O
  O2       1.0000 0.06940  0.36720  0.19730  Biso   1.000  O
  O3       1.0000 0.19960  0.36660  0.36560  Biso   1.000  O
  O4       1.0000 0.06800  0.36680  0.36570  Biso   1.000  O
  O5       1.0000 0.06830  0.19910  0.36730  Biso   1.000  O
  O6       1.0000 0.63360  0.80020  0.93030  Biso   1.000  O
  O7       1.0000 0.63280  0.93060  0.80270  Biso   1.000  O
  O8       1.0000 0.63340  0.80040  0.63440  Biso   1.000  O
  O9       1.0000 0.63320  0.93200  0.63430  Biso   1.000  O
  O10      1.0000 0.80090  0.93170  0.63270  Biso   1.000  O
  O11      1.0000 0.80020  0.63360  0.93030  Biso   1.000  O
  O12      1.0000 0.93060  0.63280  0.80270  Biso   1.000  O
  O13      1.0000 0.80040  0.63340  0.63440  Biso   1.000  O
  O14      1.0000 0.93200  0.63320  0.63430  Biso   1.000  O
  O15      1.0000 0.93170  0.80090  0.63270  Biso   1.000  O
  O16      1.0000 0.36640  0.19980  0.06970  Biso   1.000  O
  O17      1.0000 0.36720  0.06940  0.19730  Biso   1.000  O
  O18      1.0000 0.36660  0.19960  0.36560  Biso   1.000  O
  O19      1.0000 0.36680  0.06800  0.36570  Biso   1.000  O
  O20      1.0000 0.19910  0.06830  0.36730  Biso   1.000  O
  O21      1.0000 0.24870  0.24870  0.25120  Biso   1.000  O
  O22      1.0000 0.36630  0.36630  0.06820  Biso   1.000  O
  O23      1.0000 0.36620  0.36620  0.19910  Biso   1.000  O
  O24      1.0000 0.75130  0.75130  0.74880  Biso   1.000  O
  O25      1.0000 0.63370  0.63370  0.93180  Biso   1.000  O
  O26      1.0000 0.63380  0.63380  0.80090  Biso   1.000  O
  Zn9      1.0000 0.48185  0.34863  0.67658  Biso   1.000  Zn
  Zn10     1.0000 0.65748  0.34863  0.50095  Biso   1.000  Zn
  Zn11     1.0000 0.48184  0.34862  0.50096  Biso   1.000  Zn
  Zn12     1.0000 0.48186  0.52425  0.50095  Biso   1.000  Zn
  Zn13     1.0000 0.08627  0.93085  0.90763  Biso   1.000  Zn
  Zn14     1.0000 0.91064  0.93086  0.08326  Biso   1.000  Zn
  Zn15     1.0000 0.08628  0.75524  0.08326  Biso   1.000  Zn
  Zn16     1.0000 0.08628  0.93087  0.08326  Biso   1.000  Zn
  H13      1.0000 0.63276  0.18512  0.85261  Biso   1.000  H
  H14      1.0000 0.84456  0.18516  0.64081  Biso   1.000  H
  H15      1.0000 0.32946  0.48847  0.33750  Biso   1.000  H
  H16      1.0000 0.32946  0.70023  0.33750  Biso   1.000  H
  H17      1.0000 0.32948  0.70024  0.64081  Biso   1.000  H
  H18      1.0000 0.32943  0.48845  0.85261  Biso   1.000  H
  H19      1.0000 0.63279  0.18515  0.33750  Biso   1.000  H
  H20      1.0000 0.84454  0.18514  0.33750  Biso   1.000  H
  H21      1.0000 0.84454  0.48847  0.33750  Biso   1.000  H
  H22      1.0000 0.63279  0.70023  0.33750  Biso   1.000  H
  H23      1.0000 0.32948  0.18516  0.64081  Biso   1.000  H
  H24      1.0000 0.32943  0.18512  0.85261  Biso   1.000  H
  H25      1.0000 0.93536  0.09437  0.73160  Biso   1.000  H
  H26      1.0000 0.72356  0.09433  0.94340  Biso   1.000  H
  H27      1.0000 0.23866  0.57926  0.24671  Biso   1.000  H
  H28      1.0000 0.23866  0.79102  0.24671  Biso   1.000  H
  H29      1.0000 0.23864  0.09433  0.94340  Biso   1.000  H
  H30      1.0000 0.23869  0.09437  0.73160  Biso   1.000  H
  H31      1.0000 0.93533  0.57926  0.24671  Biso   1.000  H
  H32      1.0000 0.72358  0.79102  0.24671  Biso   1.000  H
  H33      1.0000 0.72358  0.09434  0.24671  Biso   1.000  H
  H34      1.0000 0.93533  0.09434  0.24671  Biso   1.000  H
  H35      1.0000 0.23864  0.57925  0.94340  Biso   1.000  H
  H36      1.0000 0.23869  0.79104  0.73160  Biso   1.000  H
  C31      1.0000 0.69680  0.16668  0.82545  Biso   1.000  C
  C32      1.0000 0.81741  0.16672  0.70485  Biso   1.000  C
  C33      1.0000 0.31102  0.55251  0.31906  Biso   1.000  C
  C34      1.0000 0.31102  0.67307  0.31906  Biso   1.000  C
  C35      1.0000 0.31104  0.67309  0.70485  Biso   1.000  C
  C36      1.0000 0.31099  0.55249  0.82545  Biso   1.000  C
  C37      1.0000 0.69683  0.16670  0.31906  Biso   1.000  C
  C38      1.0000 0.81738  0.16670  0.31906  Biso   1.000  C
  C39      1.0000 0.81739  0.55251  0.31906  Biso   1.000  C
  C40      1.0000 0.69683  0.67307  0.31906  Biso   1.000  C
  C41      1.0000 0.31104  0.16672  0.70485  Biso   1.000  C
  C42      1.0000 0.31099  0.16668  0.82545  Biso   1.000  C
  C43      1.0000 0.87132  0.11281  0.75876  Biso   1.000  C
  C44      1.0000 0.75072  0.11277  0.87936  Biso   1.000  C
  C45      1.0000 0.25710  0.60642  0.26515  Biso   1.000  C
  C46      1.0000 0.25710  0.72698  0.26515  Biso   1.000  C
  C47      1.0000 0.25708  0.11277  0.87936  Biso   1.000  C
  C48      1.0000 0.25713  0.11281  0.75876  Biso   1.000  C
  C49      1.0000 0.87129  0.60642  0.26515  Biso   1.000  C
  C50      1.0000 0.75074  0.72698  0.26515  Biso   1.000  C
  C51      1.0000 0.75074  0.11279  0.26515  Biso   1.000  C
  C52      1.0000 0.87129  0.11279  0.26515  Biso   1.000  C
  C53      1.0000 0.25708  0.60640  0.87936  Biso   1.000  C
  C54      1.0000 0.25713  0.72700  0.75876  Biso   1.000  C
  C55      1.0000 0.66573  0.25257  0.68482  Biso   1.000  C
  C56      1.0000 0.72437  0.19394  0.74345  Biso   1.000  C
  C57      1.0000 0.38579  0.53249  0.40491  Biso   1.000  C
  C58      1.0000 0.32715  0.59112  0.34628  Biso   1.000  C
  C59      1.0000 0.38580  0.53250  0.68482  Biso   1.000  C
  C60      1.0000 0.32717  0.59114  0.74345  Biso   1.000  C
  C61      1.0000 0.66572  0.25256  0.40491  Biso   1.000  C
  C62      1.0000 0.72435  0.19392  0.34628  Biso   1.000  C
  C63      1.0000 0.66572  0.53249  0.40491  Biso   1.000  C
  C64      1.0000 0.72435  0.59112  0.34628  Biso   1.000  C
  C65      1.0000 0.38580  0.25257  0.68482  Biso   1.000  C
  C66      1.0000 0.32717  0.19394  0.74345  Biso   1.000  C
  C67      1.0000 0.90239  0.02692  0.89939  Biso   1.000  C
  C68      1.0000 0.84375  0.08555  0.84076  Biso   1.000  C
  C69      1.0000 0.18233  0.74700  0.17930  Biso   1.000  C
  C70      1.0000 0.24097  0.68837  0.23793  Biso   1.000  C
  C71      1.0000 0.18232  0.02692  0.89939  Biso   1.000  C
  C72      1.0000 0.24095  0.08555  0.84076  Biso   1.000  C
  C73      1.0000 0.90240  0.74700  0.17930  Biso   1.000  C
  C74      1.0000 0.84377  0.68837  0.23793  Biso   1.000  C
  C75      1.0000 0.90241  0.02693  0.17930  Biso   1.000  C
  C76      1.0000 0.84378  0.08557  0.23793  Biso   1.000  C
  C77      1.0000 0.18232  0.74699  0.89939  Biso   1.000  C
  C78      1.0000 0.24095  0.68835  0.84076  Biso   1.000  C
  O27      1.0000 0.52576  0.39253  0.54486  Biso   1.000  O
  O28      1.0000 0.04236  0.88696  0.03935  Biso   1.000  O
  O29      1.0000 0.58151  0.27516  0.72387  Biso   1.000  O
  O30      1.0000 0.70477  0.27516  0.60060  Biso   1.000  O
  O31      1.0000 0.40838  0.44826  0.42749  Biso   1.000  O
  O32      1.0000 0.40838  0.57154  0.42749  Biso   1.000  O
  O33      1.0000 0.40839  0.57155  0.60060  Biso   1.000  O
  O34      1.0000 0.40839  0.44828  0.72387  Biso   1.000  O
  O35      1.0000 0.58149  0.27515  0.42749  Biso   1.000  O
  O36      1.0000 0.70477  0.27515  0.42749  Biso   1.000  O
  O37      1.0000 0.70477  0.44826  0.42749  Biso   1.000  O
  O38      1.0000 0.58149  0.57154  0.42749  Biso   1.000  O
  O39      1.0000 0.40838  0.27516  0.60060  Biso   1.000  O
  O40      1.0000 0.40839  0.27516  0.72387  Biso   1.000  O
  O41      1.0000 0.98661  0.00433  0.86034  Biso   1.000  O
  O42      1.0000 0.86335  0.00433  0.98361  Biso   1.000  O
  O43      1.0000 0.15975  0.70795  0.15672  Biso   1.000  O
  O44      1.0000 0.15975  0.83122  0.15672  Biso   1.000  O
  O45      1.0000 0.15974  0.00433  0.98361  Biso   1.000  O
  O46      1.0000 0.15973  0.00433  0.86034  Biso   1.000  O
  O47      1.0000 0.98663  0.70795  0.15672  Biso   1.000  O
  O48      1.0000 0.86336  0.83122  0.15672  Biso   1.000  O
  O49      1.0000 0.86336  0.00434  0.15672  Biso   1.000  O
  O50      1.0000 0.98663  0.00434  0.15672  Biso   1.000  O
  O51      1.0000 0.15974  0.70794  0.98361  Biso   1.000  O
