data_image0
_cell_length_a       18.101
_cell_length_b       18.101
_cell_length_c       18.101
_cell_angle_alpha    60.0036
_cell_angle_beta     60.0036
_cell_angle_gamma    60.0001

_symmetry_space_group_name_H-M    "P 1"
_symmetry_int_tables_number       1

loop_
  _symmetry_equiv_pos_as_xyz
  'x, y, z'

loop_
  _atom_site_label
  _atom_site_occupancy
  _atom_site_fract_x
  _atom_site_fract_y
  _atom_site_fract_z
  _atom_site_thermal_displace_type
  _atom_site_B_iso_or_equiv
  _atom_site_type_symbol
  C1       1.0000 0.11865  0.29385  0.29380  Biso   1.000  C
  C2       1.0000 0.70615  0.88135  0.70620  Biso   1.000  C
  C3       1.0000 0.88135  0.70615  0.70620  Biso   1.000  C
  C4       1.0000 0.29385  0.11865  0.29380  Biso   1.000  C
  C5       1.0000 0.29392  0.29392  0.11841  Biso   1.000  C
  C6       1.0000 0.29367  0.29367  0.29393  Biso   1.000  C
  C7       1.0000 0.70608  0.70608  0.88159  Biso   1.000  C
  C8       1.0000 0.70633  0.70633  0.70607  Biso   1.000  C
  C9       1.0000 0.15480  0.45200  0.93360  Biso   1.000  C
  C10      1.0000 0.93280  0.45040  0.15620  Biso   1.000  C
  C11      1.0000 0.93080  0.15620  0.44950  Biso   1.000  C
  C12      1.0000 0.54800  0.84520  0.06640  Biso   1.000  C
  C13      1.0000 0.54960  0.06720  0.84380  Biso   1.000  C
  C14      1.0000 0.84380  0.06920  0.55050  Biso   1.000  C
  C15      1.0000 0.84520  0.54800  0.06640  Biso   1.000  C
  C16      1.0000 0.06720  0.54960  0.84380  Biso   1.000  C
  C17      1.0000 0.06920  0.84380  0.55050  Biso   1.000  C
  C18      1.0000 0.45200  0.15480  0.93360  Biso   1.000  C
  C19      1.0000 0.45040  0.93280  0.15620  Biso   1.000  C
  C20      1.0000 0.15620  0.93080  0.44950  Biso   1.000  C
  C21      1.0000 0.12160  0.38280  0.11390  Biso   1.000  C
  C22      1.0000 0.05170  0.44790  0.05410  Biso   1.000  C
  C23      1.0000 0.09080  0.47360  0.96020  Biso   1.000  C
  C24      1.0000 0.96010  0.47210  0.09240  Biso   1.000  C
  C25      1.0000 0.11800  0.38220  0.38200  Biso   1.000  C
  C26      1.0000 0.95710  0.09250  0.47340  Biso   1.000  C
  C27      1.0000 0.61720  0.87840  0.88610  Biso   1.000  C
  C28      1.0000 0.55210  0.94830  0.94590  Biso   1.000  C
  C29      1.0000 0.52640  0.90920  0.03980  Biso   1.000  C
  C30      1.0000 0.52790  0.03990  0.90760  Biso   1.000  C
  C31      1.0000 0.61780  0.88200  0.61800  Biso   1.000  C
  C32      1.0000 0.90750  0.04290  0.52660  Biso   1.000  C
  C33      1.0000 0.87840  0.61720  0.88610  Biso   1.000  C
  C34      1.0000 0.94830  0.55210  0.94590  Biso   1.000  C
  C35      1.0000 0.90920  0.52640  0.03980  Biso   1.000  C
  C36      1.0000 0.03990  0.52790  0.90760  Biso   1.000  C
  C37      1.0000 0.88200  0.61780  0.61800  Biso   1.000  C
  C38      1.0000 0.04290  0.90750  0.52660  Biso   1.000  C
  C39      1.0000 0.38280  0.12160  0.11390  Biso   1.000  C
  C40      1.0000 0.44790  0.05170  0.05410  Biso   1.000  C
  C41      1.0000 0.47360  0.09080  0.96020  Biso   1.000  C
  C42      1.0000 0.47210  0.96010  0.09240  Biso   1.000  C
  C43      1.0000 0.38220  0.11800  0.38200  Biso   1.000  C
  C44      1.0000 0.09250  0.95710  0.47340  Biso   1.000  C
  C45      1.0000 0.38310  0.38310  0.11400  Biso   1.000  C
  C46      1.0000 0.11690  0.11690  0.38110  Biso   1.000  C
  C47      1.0000 0.05150  0.05150  0.45050  Biso   1.000  C
  C48      1.0000 0.61690  0.61690  0.88600  Biso   1.000  C
  C49      1.0000 0.88310  0.88310  0.61890  Biso   1.000  C
  C50      1.0000 0.94850  0.94850  0.54950  Biso   1.000  C
  C51      1.0000 0.19980  0.36640  0.06970  Biso   1.000  C
  C52      1.0000 0.06940  0.36720  0.19730  Biso   1.000  C
  C53      1.0000 0.19960  0.36660  0.36560  Biso   1.000  C
  C54      1.0000 0.06800  0.36680  0.36570  Biso   1.000  C
  C55      1.0000 0.06830  0.19910  0.36730  Biso   1.000  C
  C56      1.0000 0.63360  0.80020  0.93030  Biso   1.000  C
  C57      1.0000 0.63280  0.93060  0.80270  Biso   1.000  C
  C58      1.0000 0.63340  0.80040  0.63440  Biso   1.000  C
  C59      1.0000 0.63320  0.93200  0.63430  Biso   1.000  C
  C60      1.0000 0.80090  0.93170  0.63270  Biso   1.000  C
  C61      1.0000 0.80020  0.63360  0.93030  Biso   1.000  C
  C62      1.0000 0.93060  0.63280  0.80270  Biso   1.000  C
  C63      1.0000 0.80040  0.63340  0.63440  Biso   1.000  C
  C64      1.0000 0.93200  0.63320  0.63430  Biso   1.000  C
  C65      1.0000 0.93170  0.80090  0.63270  Biso   1.000  C
  C66      1.0000 0.36640  0.19980  0.06970  Biso   1.000  C
  C67      1.0000 0.36720  0.06940  0.19730  Biso   1.000  C
  C68      1.0000 0.36660  0.19960  0.36560  Biso   1.000  C
  C69      1.0000 0.36680  0.06800  0.36570  Biso   1.000  C
  C70      1.0000 0.19910  0.06830  0.36730  Biso   1.000  C
  C71      1.0000 0.24870  0.24870  0.25120  Biso   1.000  C
  C72      1.0000 0.36630  0.36630  0.06820  Biso   1.000  C
  C73      1.0000 0.36620  0.36620  0.19910  Biso   1.000  C
  C74      1.0000 0.75130  0.75130  0.74880  Biso   1.000  C
  C75      1.0000 0.63370  0.63370  0.93180  Biso   1.000  C
  C76      1.0000 0.63380  0.63380  0.80090  Biso   1.000  C
  O1       1.0000 0.48185  0.34863  0.67658  Biso   1.000  O
  O2       1.0000 0.65749  0.34862  0.50095  Biso   1.000  O
  O3       1.0000 0.48184  0.34862  0.50095  Biso   1.000  O
  O4       1.0000 0.48185  0.52426  0.50095  Biso   1.000  O
  O5       1.0000 0.08406  0.93159  0.90834  Biso   1.000  O
  O6       1.0000 0.90842  0.93160  0.08398  Biso   1.000  O
  O7       1.0000 0.08406  0.75596  0.08398  Biso   1.000  O
  O8       1.0000 0.08407  0.93160  0.08398  Biso   1.000  O
  O9       1.0000 0.63256  0.18522  0.85259  Biso   1.000  O
  O10      1.0000 0.84308  0.18526  0.64207  Biso   1.000  O
  O11      1.0000 0.32809  0.48974  0.33759  Biso   1.000  O
  O12      1.0000 0.32809  0.70022  0.33759  Biso   1.000  O
  O13      1.0000 0.32810  0.70024  0.64207  Biso   1.000  O
  O14      1.0000 0.32806  0.48972  0.85259  Biso   1.000  O
  O15      1.0000 0.63259  0.18524  0.33759  Biso   1.000  O
  O16      1.0000 0.84307  0.18524  0.33759  Biso   1.000  O
  O17      1.0000 0.84307  0.48974  0.33759  Biso   1.000  O
  O18      1.0000 0.63259  0.70022  0.33759  Biso   1.000  O
  O19      1.0000 0.32810  0.18526  0.64207  Biso   1.000  O
  O20      1.0000 0.32806  0.18522  0.85259  Biso   1.000  O
  O21      1.0000 0.93335  0.09500  0.73233  Biso   1.000  O
  O22      1.0000 0.72283  0.09496  0.94285  Biso   1.000  O
  O23      1.0000 0.23782  0.58000  0.24733  Biso   1.000  O
  O24      1.0000 0.23782  0.79048  0.24733  Biso   1.000  O
  O25      1.0000 0.23781  0.09496  0.94285  Biso   1.000  O
  O26      1.0000 0.23785  0.09500  0.73233  Biso   1.000  O
  O27      1.0000 0.93332  0.58000  0.24733  Biso   1.000  O
  O28      1.0000 0.72284  0.79048  0.24733  Biso   1.000  O
  O29      1.0000 0.72284  0.09498  0.24733  Biso   1.000  O
  O30      1.0000 0.93332  0.09498  0.24733  Biso   1.000  O
  O31      1.0000 0.23781  0.57998  0.94285  Biso   1.000  O
  O32      1.0000 0.23785  0.79050  0.73233  Biso   1.000  O
  O33      1.0000 0.69579  0.16703  0.82573  Biso   1.000  O
  O34      1.0000 0.81622  0.16708  0.70530  Biso   1.000  O
  O35      1.0000 0.30990  0.55297  0.31941  Biso   1.000  O
  O36      1.0000 0.30990  0.67335  0.31941  Biso   1.000  O
  O37      1.0000 0.30992  0.67337  0.70530  Biso   1.000  O
  O38      1.0000 0.30988  0.55295  0.82573  Biso   1.000  O
  O39      1.0000 0.69582  0.16706  0.31941  Biso   1.000  O
  O40      1.0000 0.81620  0.16706  0.31941  Biso   1.000  O
  O41      1.0000 0.81620  0.55297  0.31941  Biso   1.000  O
  O42      1.0000 0.69582  0.67335  0.31941  Biso   1.000  O
  O43      1.0000 0.30992  0.16708  0.70530  Biso   1.000  O
  O44      1.0000 0.30988  0.16703  0.82573  Biso   1.000  O
  O45      1.0000 0.87012  0.11319  0.75919  Biso   1.000  O
  O46      1.0000 0.74969  0.11314  0.87962  Biso   1.000  O
  O47      1.0000 0.25601  0.60686  0.26552  Biso   1.000  O
  O48      1.0000 0.25601  0.72724  0.26552  Biso   1.000  O
  O49      1.0000 0.25599  0.11314  0.87962  Biso   1.000  O
  O50      1.0000 0.25603  0.11319  0.75919  Biso   1.000  O
  O51      1.0000 0.87009  0.60686  0.26552  Biso   1.000  O
  O52      1.0000 0.74971  0.72724  0.26552  Biso   1.000  O
  O53      1.0000 0.74971  0.11316  0.26552  Biso   1.000  O
  O54      1.0000 0.87009  0.11316  0.26552  Biso   1.000  O
  O55      1.0000 0.25599  0.60684  0.87962  Biso   1.000  O
  O56      1.0000 0.25603  0.72727  0.75919  Biso   1.000  O
  O57      1.0000 0.66563  0.25267  0.68471  Biso   1.000  O
  O58      1.0000 0.72390  0.19440  0.74298  Biso   1.000  O
  O59      1.0000 0.38589  0.53238  0.40500  Biso   1.000  O
  O60      1.0000 0.32761  0.59065  0.34673  Biso   1.000  O
  O61      1.0000 0.38590  0.53240  0.68471  Biso   1.000  O
  O62      1.0000 0.32763  0.59067  0.74298  Biso   1.000  O
  O63      1.0000 0.66561  0.25266  0.40500  Biso   1.000  O
  O64      1.0000 0.72388  0.19438  0.34673  Biso   1.000  O
  O65      1.0000 0.66561  0.53238  0.40500  Biso   1.000  O
  O66      1.0000 0.72388  0.59065  0.34673  Biso   1.000  O
  O67      1.0000 0.38590  0.25267  0.68471  Biso   1.000  O
  O68      1.0000 0.32763  0.19440  0.74298  Biso   1.000  O
  O69      1.0000 0.90028  0.02755  0.90022  Biso   1.000  O
  O70      1.0000 0.84201  0.08582  0.84194  Biso   1.000  O
  O71      1.0000 0.18002  0.74784  0.17993  Biso   1.000  O
  O72      1.0000 0.23830  0.68956  0.23820  Biso   1.000  O
  O73      1.0000 0.18001  0.02755  0.90022  Biso   1.000  O
  O74      1.0000 0.23828  0.08582  0.84194  Biso   1.000  O
  O75      1.0000 0.90030  0.74784  0.17993  Biso   1.000  O
  O76      1.0000 0.84203  0.68956  0.23820  Biso   1.000  O
  O77      1.0000 0.90030  0.02756  0.17993  Biso   1.000  O
  O78      1.0000 0.84203  0.08584  0.23820  Biso   1.000  O
  O79      1.0000 0.18001  0.74782  0.90022  Biso   1.000  O
  O80      1.0000 0.23828  0.68954  0.84194  Biso   1.000  O
  O81      1.0000 0.52576  0.39253  0.54485  Biso   1.000  O
  O82      1.0000 0.04015  0.88769  0.04007  Biso   1.000  O
  O83      1.0000 0.58147  0.27533  0.72356  Biso   1.000  O
  O84      1.0000 0.70447  0.27532  0.60055  Biso   1.000  O
  O85      1.0000 0.40854  0.44822  0.42765  Biso   1.000  O
  O86      1.0000 0.40854  0.57123  0.42765  Biso   1.000  O
  O87      1.0000 0.40855  0.57124  0.60055  Biso   1.000  O
  O88      1.0000 0.40856  0.44824  0.72356  Biso   1.000  O
  O89      1.0000 0.58145  0.27531  0.42765  Biso   1.000  O
  O90      1.0000 0.70446  0.27531  0.42765  Biso   1.000  O
  O91      1.0000 0.70446  0.44822  0.42765  Biso   1.000  O
  O92      1.0000 0.58145  0.57123  0.42765  Biso   1.000  O
  O93      1.0000 0.40855  0.27532  0.60055  Biso   1.000  O
  O94      1.0000 0.40856  0.27533  0.72356  Biso   1.000  O
  O95      1.0000 0.98444  0.00489  0.86137  Biso   1.000  O
  O96      1.0000 0.86144  0.00489  0.98437  Biso   1.000  O
  O97      1.0000 0.15737  0.70898  0.15727  Biso   1.000  O
  O98      1.0000 0.15737  0.83200  0.15727  Biso   1.000  O
  O99      1.0000 0.15736  0.00489  0.98437  Biso   1.000  O
  O100     1.0000 0.15735  0.00489  0.86137  Biso   1.000  O
  O101     1.0000 0.98446  0.70898  0.15727  Biso   1.000  O
  O102     1.0000 0.86145  0.83200  0.15727  Biso   1.000  O
  O103     1.0000 0.86145  0.00490  0.15727  Biso   1.000  O
  O104     1.0000 0.98446  0.00490  0.15727  Biso   1.000  O
  O105     1.0000 0.15736  0.70898  0.98437  Biso   1.000  O
