data_image0
_cell_length_a       18.101
_cell_length_b       18.101
_cell_length_c       18.101
_cell_angle_alpha    60.0036
_cell_angle_beta     60.0036
_cell_angle_gamma    60.0001

_symmetry_space_group_name_H-M    "P 1"
_symmetry_int_tables_number       1

loop_
  _symmetry_equiv_pos_as_xyz
  'x, y, z'

loop_
  _atom_site_label
  _atom_site_occupancy
  _atom_site_fract_x
  _atom_site_fract_y
  _atom_site_fract_z
  _atom_site_thermal_displace_type
  _atom_site_B_iso_or_equiv
  _atom_site_type_symbol
  C1       1.0000 0.11865  0.29385  0.29380  Biso   1.000  C
  C2       1.0000 0.70615  0.88135  0.70620  Biso   1.000  C
  C3       1.0000 0.88135  0.70615  0.70620  Biso   1.000  C
  C4       1.0000 0.29385  0.11865  0.29380  Biso   1.000  C
  C5       1.0000 0.29392  0.29392  0.11841  Biso   1.000  C
  C6       1.0000 0.29367  0.29367  0.29393  Biso   1.000  C
  C7       1.0000 0.70608  0.70608  0.88159  Biso   1.000  C
  C8       1.0000 0.70633  0.70633  0.70607  Biso   1.000  C
  C9       1.0000 0.15480  0.45200  0.93360  Biso   1.000  C
  C10      1.0000 0.93280  0.45040  0.15620  Biso   1.000  C
  C11      1.0000 0.93080  0.15620  0.44950  Biso   1.000  C
  C12      1.0000 0.54800  0.84520  0.06640  Biso   1.000  C
  C13      1.0000 0.54960  0.06720  0.84380  Biso   1.000  C
  C14      1.0000 0.84380  0.06920  0.55050  Biso   1.000  C
  C15      1.0000 0.84520  0.54800  0.06640  Biso   1.000  C
  C16      1.0000 0.06720  0.54960  0.84380  Biso   1.000  C
  C17      1.0000 0.06920  0.84380  0.55050  Biso   1.000  C
  C18      1.0000 0.45200  0.15480  0.93360  Biso   1.000  C
  C19      1.0000 0.45040  0.93280  0.15620  Biso   1.000  C
  C20      1.0000 0.15620  0.93080  0.44950  Biso   1.000  C
  C21      1.0000 0.12160  0.38280  0.11390  Biso   1.000  C
  C22      1.0000 0.05170  0.44790  0.05410  Biso   1.000  C
  C23      1.0000 0.09080  0.47360  0.96020  Biso   1.000  C
  C24      1.0000 0.96010  0.47210  0.09240  Biso   1.000  C
  C25      1.0000 0.11800  0.38220  0.38200  Biso   1.000  C
  C26      1.0000 0.95710  0.09250  0.47340  Biso   1.000  C
  C27      1.0000 0.61720  0.87840  0.88610  Biso   1.000  C
  C28      1.0000 0.55210  0.94830  0.94590  Biso   1.000  C
  C29      1.0000 0.52640  0.90920  0.03980  Biso   1.000  C
  C30      1.0000 0.52790  0.03990  0.90760  Biso   1.000  C
  C31      1.0000 0.61780  0.88200  0.61800  Biso   1.000  C
  C32      1.0000 0.90750  0.04290  0.52660  Biso   1.000  C
  C33      1.0000 0.87840  0.61720  0.88610  Biso   1.000  C
  C34      1.0000 0.94830  0.55210  0.94590  Biso   1.000  C
  C35      1.0000 0.90920  0.52640  0.03980  Biso   1.000  C
  C36      1.0000 0.03990  0.52790  0.90760  Biso   1.000  C
  C37      1.0000 0.88200  0.61780  0.61800  Biso   1.000  C
  C38      1.0000 0.04290  0.90750  0.52660  Biso   1.000  C
  C39      1.0000 0.38280  0.12160  0.11390  Biso   1.000  C
  C40      1.0000 0.44790  0.05170  0.05410  Biso   1.000  C
  C41      1.0000 0.47360  0.09080  0.96020  Biso   1.000  C
  C42      1.0000 0.47210  0.96010  0.09240  Biso   1.000  C
  C43      1.0000 0.38220  0.11800  0.38200  Biso   1.000  C
  C44      1.0000 0.09250  0.95710  0.47340  Biso   1.000  C
  C45      1.0000 0.38310  0.38310  0.11400  Biso   1.000  C
  C46      1.0000 0.11690  0.11690  0.38110  Biso   1.000  C
  C47      1.0000 0.05150  0.05150  0.45050  Biso   1.000  C
  C48      1.0000 0.61690  0.61690  0.88600  Biso   1.000  C
  C49      1.0000 0.88310  0.88310  0.61890  Biso   1.000  C
  C50      1.0000 0.94850  0.94850  0.54950  Biso   1.000  C
  C51      1.0000 0.19980  0.36640  0.06970  Biso   1.000  C
  C52      1.0000 0.06940  0.36720  0.19730  Biso   1.000  C
  C53      1.0000 0.19960  0.36660  0.36560  Biso   1.000  C
  C54      1.0000 0.06800  0.36680  0.36570  Biso   1.000  C
  C55      1.0000 0.06830  0.19910  0.36730  Biso   1.000  C
  C56      1.0000 0.63360  0.80020  0.93030  Biso   1.000  C
  C57      1.0000 0.63280  0.93060  0.80270  Biso   1.000  C
  C58      1.0000 0.63340  0.80040  0.63440  Biso   1.000  C
  C59      1.0000 0.63320  0.93200  0.63430  Biso   1.000  C
  C60      1.0000 0.80090  0.93170  0.63270  Biso   1.000  C
  C61      1.0000 0.80020  0.63360  0.93030  Biso   1.000  C
  C62      1.0000 0.93060  0.63280  0.80270  Biso   1.000  C
  C63      1.0000 0.80040  0.63340  0.63440  Biso   1.000  C
  C64      1.0000 0.93200  0.63320  0.63430  Biso   1.000  C
  C65      1.0000 0.93170  0.80090  0.63270  Biso   1.000  C
  C66      1.0000 0.36640  0.19980  0.06970  Biso   1.000  C
  C67      1.0000 0.36720  0.06940  0.19730  Biso   1.000  C
  C68      1.0000 0.36660  0.19960  0.36560  Biso   1.000  C
  C69      1.0000 0.36680  0.06800  0.36570  Biso   1.000  C
  C70      1.0000 0.19910  0.06830  0.36730  Biso   1.000  C
  C71      1.0000 0.24870  0.24870  0.25120  Biso   1.000  C
  C72      1.0000 0.36630  0.36630  0.06820  Biso   1.000  C
  C73      1.0000 0.36620  0.36620  0.19910  Biso   1.000  C
  C74      1.0000 0.75130  0.75130  0.74880  Biso   1.000  C
  C75      1.0000 0.63370  0.63370  0.93180  Biso   1.000  C
  C76      1.0000 0.63380  0.63380  0.80090  Biso   1.000  C
  O1       1.0000 0.48185  0.34863  0.67658  Biso   1.000  O
  O2       1.0000 0.65752  0.34862  0.50091  Biso   1.000  O
  O3       1.0000 0.48184  0.34862  0.50091  Biso   1.000  O
  O4       1.0000 0.48185  0.52429  0.50091  Biso   1.000  O
  O5       1.0000 0.08334  0.93186  0.90854  Biso   1.000  O
  O6       1.0000 0.90767  0.93187  0.08420  Biso   1.000  O
  O7       1.0000 0.08335  0.75619  0.08420  Biso   1.000  O
  O8       1.0000 0.08335  0.93187  0.08420  Biso   1.000  O
  O9       1.0000 0.63304  0.18492  0.85270  Biso   1.000  O
  O10      1.0000 0.84274  0.18496  0.64301  Biso   1.000  O
  O11      1.0000 0.32730  0.49071  0.33726  Biso   1.000  O
  O12      1.0000 0.32730  0.70037  0.33726  Biso   1.000  O
  O13      1.0000 0.32732  0.70038  0.64301  Biso   1.000  O
  O14      1.0000 0.32728  0.49069  0.85270  Biso   1.000  O
  O15      1.0000 0.63307  0.18495  0.33726  Biso   1.000  O
  O16      1.0000 0.84272  0.18495  0.33726  Biso   1.000  O
  O17      1.0000 0.84272  0.49071  0.33726  Biso   1.000  O
  O18      1.0000 0.63307  0.70037  0.33726  Biso   1.000  O
  O19      1.0000 0.32732  0.18496  0.64301  Biso   1.000  O
  O20      1.0000 0.32728  0.18492  0.85270  Biso   1.000  O
  O21      1.0000 0.93215  0.09556  0.73241  Biso   1.000  O
  O22      1.0000 0.72245  0.09552  0.94211  Biso   1.000  O
  O23      1.0000 0.23789  0.58012  0.24786  Biso   1.000  O
  O24      1.0000 0.23789  0.78977  0.24786  Biso   1.000  O
  O25      1.0000 0.23787  0.09552  0.94211  Biso   1.000  O
  O26      1.0000 0.23791  0.09556  0.73241  Biso   1.000  O
  O27      1.0000 0.93212  0.58012  0.24786  Biso   1.000  O
  O28      1.0000 0.72247  0.78977  0.24786  Biso   1.000  O
  O29      1.0000 0.72247  0.09553  0.24786  Biso   1.000  O
  O30      1.0000 0.93212  0.09553  0.24786  Biso   1.000  O
  O31      1.0000 0.23787  0.58010  0.94211  Biso   1.000  O
  O32      1.0000 0.23791  0.78980  0.73241  Biso   1.000  O
  O33      1.0000 0.69561  0.16704  0.82590  Biso   1.000  O
  O34      1.0000 0.81594  0.16709  0.70557  Biso   1.000  O
  O35      1.0000 0.30942  0.55328  0.31938  Biso   1.000  O
  O36      1.0000 0.30942  0.67356  0.31938  Biso   1.000  O
  O37      1.0000 0.30944  0.67358  0.70557  Biso   1.000  O
  O38      1.0000 0.30939  0.55325  0.82590  Biso   1.000  O
  O39      1.0000 0.69563  0.16706  0.31938  Biso   1.000  O
  O40      1.0000 0.81592  0.16706  0.31938  Biso   1.000  O
  O41      1.0000 0.81592  0.55328  0.31938  Biso   1.000  O
  O42      1.0000 0.69563  0.67356  0.31938  Biso   1.000  O
  O43      1.0000 0.30944  0.16709  0.70557  Biso   1.000  O
  O44      1.0000 0.30939  0.16704  0.82590  Biso   1.000  O
  O45      1.0000 0.86959  0.11344  0.75921  Biso   1.000  O
  O46      1.0000 0.74925  0.11340  0.87954  Biso   1.000  O
  O47      1.0000 0.25577  0.60692  0.26574  Biso   1.000  O
  O48      1.0000 0.25577  0.72720  0.26574  Biso   1.000  O
  O49      1.0000 0.25575  0.11340  0.87954  Biso   1.000  O
  O50      1.0000 0.25580  0.11344  0.75921  Biso   1.000  O
  O51      1.0000 0.86956  0.60692  0.26574  Biso   1.000  O
  O52      1.0000 0.74927  0.72720  0.26574  Biso   1.000  O
  O53      1.0000 0.74927  0.11342  0.26574  Biso   1.000  O
  O54      1.0000 0.86956  0.11342  0.26574  Biso   1.000  O
  O55      1.0000 0.25575  0.60690  0.87954  Biso   1.000  O
  O56      1.0000 0.25580  0.72723  0.75921  Biso   1.000  O
  O57      1.0000 0.66562  0.25270  0.68466  Biso   1.000  O
  O58      1.0000 0.72382  0.19451  0.74286  Biso   1.000  O
  O59      1.0000 0.38591  0.53237  0.40499  Biso   1.000  O
  O60      1.0000 0.32771  0.59057  0.34680  Biso   1.000  O
  O61      1.0000 0.38593  0.53239  0.68466  Biso   1.000  O
  O62      1.0000 0.32773  0.59059  0.74286  Biso   1.000  O
  O63      1.0000 0.66560  0.25268  0.40499  Biso   1.000  O
  O64      1.0000 0.72379  0.19448  0.34680  Biso   1.000  O
  O65      1.0000 0.66560  0.53237  0.40499  Biso   1.000  O
  O66      1.0000 0.72380  0.59057  0.34680  Biso   1.000  O
  O67      1.0000 0.38593  0.25270  0.68466  Biso   1.000  O
  O68      1.0000 0.32773  0.19451  0.74286  Biso   1.000  O
  O69      1.0000 0.89957  0.02778  0.90045  Biso   1.000  O
  O70      1.0000 0.84137  0.08598  0.84226  Biso   1.000  O
  O71      1.0000 0.17928  0.74811  0.18013  Biso   1.000  O
  O72      1.0000 0.23748  0.68992  0.23832  Biso   1.000  O
  O73      1.0000 0.17926  0.02778  0.90045  Biso   1.000  O
  O74      1.0000 0.23746  0.08598  0.84226  Biso   1.000  O
  O75      1.0000 0.89959  0.74811  0.18013  Biso   1.000  O
  O76      1.0000 0.84140  0.68992  0.23832  Biso   1.000  O
  O77      1.0000 0.89959  0.02780  0.18013  Biso   1.000  O
  O78      1.0000 0.84140  0.08600  0.23832  Biso   1.000  O
  O79      1.0000 0.17926  0.74809  0.90045  Biso   1.000  O
  O80      1.0000 0.23746  0.68989  0.84226  Biso   1.000  O
  O81      1.0000 0.52576  0.39254  0.54483  Biso   1.000  O
  O82      1.0000 0.03943  0.88795  0.04029  Biso   1.000  O
  O83      1.0000 0.58149  0.27532  0.72356  Biso   1.000  O
  O84      1.0000 0.70451  0.27531  0.60054  Biso   1.000  O
  O85      1.0000 0.40853  0.44824  0.42760  Biso   1.000  O
  O86      1.0000 0.40853  0.57128  0.42760  Biso   1.000  O
  O87      1.0000 0.40854  0.57129  0.60054  Biso   1.000  O
  O88      1.0000 0.40854  0.44826  0.72356  Biso   1.000  O
  O89      1.0000 0.58147  0.27530  0.42760  Biso   1.000  O
  O90      1.0000 0.70450  0.27530  0.42760  Biso   1.000  O
  O91      1.0000 0.70450  0.44824  0.42760  Biso   1.000  O
  O92      1.0000 0.58147  0.57128  0.42760  Biso   1.000  O
  O93      1.0000 0.40854  0.27531  0.60054  Biso   1.000  O
  O94      1.0000 0.40854  0.27532  0.72356  Biso   1.000  O
  O95      1.0000 0.98370  0.00517  0.86155  Biso   1.000  O
  O96      1.0000 0.86068  0.00517  0.98458  Biso   1.000  O
  O97      1.0000 0.15666  0.70921  0.15751  Biso   1.000  O
  O98      1.0000 0.15666  0.83224  0.15751  Biso   1.000  O
  O99      1.0000 0.15665  0.00517  0.98458  Biso   1.000  O
  O100     1.0000 0.15665  0.00517  0.86155  Biso   1.000  O
  O101     1.0000 0.98372  0.70921  0.15751  Biso   1.000  O
  O102     1.0000 0.86069  0.83224  0.15751  Biso   1.000  O
  O103     1.0000 0.86069  0.00518  0.15751  Biso   1.000  O
  O104     1.0000 0.98372  0.00518  0.15751  Biso   1.000  O
  O105     1.0000 0.15665  0.70920  0.98458  Biso   1.000  O
