data_image0
_cell_length_a       18.101
_cell_length_b       18.101
_cell_length_c       18.101
_cell_angle_alpha    60.0036
_cell_angle_beta     60.0036
_cell_angle_gamma    60.0001

_symmetry_space_group_name_H-M    "P 1"
_symmetry_int_tables_number       1

loop_
  _symmetry_equiv_pos_as_xyz
  'x, y, z'

loop_
  _atom_site_label
  _atom_site_occupancy
  _atom_site_fract_x
  _atom_site_fract_y
  _atom_site_fract_z
  _atom_site_thermal_displace_type
  _atom_site_B_iso_or_equiv
  _atom_site_type_symbol
  C1       1.0000 0.11865  0.29385  0.29380  Biso   1.000  C
  C2       1.0000 0.70615  0.88135  0.70620  Biso   1.000  C
  C3       1.0000 0.88135  0.70615  0.70620  Biso   1.000  C
  C4       1.0000 0.29385  0.11865  0.29380  Biso   1.000  C
  C5       1.0000 0.29392  0.29392  0.11841  Biso   1.000  C
  C6       1.0000 0.29367  0.29367  0.29393  Biso   1.000  C
  C7       1.0000 0.70608  0.70608  0.88159  Biso   1.000  C
  C8       1.0000 0.70633  0.70633  0.70607  Biso   1.000  C
  C9       1.0000 0.15480  0.45200  0.93360  Biso   1.000  C
  C10      1.0000 0.93280  0.45040  0.15620  Biso   1.000  C
  C11      1.0000 0.93080  0.15620  0.44950  Biso   1.000  C
  C12      1.0000 0.54800  0.84520  0.06640  Biso   1.000  C
  C13      1.0000 0.54960  0.06720  0.84380  Biso   1.000  C
  C14      1.0000 0.84380  0.06920  0.55050  Biso   1.000  C
  C15      1.0000 0.84520  0.54800  0.06640  Biso   1.000  C
  C16      1.0000 0.06720  0.54960  0.84380  Biso   1.000  C
  C17      1.0000 0.06920  0.84380  0.55050  Biso   1.000  C
  C18      1.0000 0.45200  0.15480  0.93360  Biso   1.000  C
  C19      1.0000 0.45040  0.93280  0.15620  Biso   1.000  C
  C20      1.0000 0.15620  0.93080  0.44950  Biso   1.000  C
  C21      1.0000 0.12160  0.38280  0.11390  Biso   1.000  C
  C22      1.0000 0.05170  0.44790  0.05410  Biso   1.000  C
  C23      1.0000 0.09080  0.47360  0.96020  Biso   1.000  C
  C24      1.0000 0.96010  0.47210  0.09240  Biso   1.000  C
  C25      1.0000 0.11800  0.38220  0.38200  Biso   1.000  C
  C26      1.0000 0.95710  0.09250  0.47340  Biso   1.000  C
  C27      1.0000 0.61720  0.87840  0.88610  Biso   1.000  C
  C28      1.0000 0.55210  0.94830  0.94590  Biso   1.000  C
  C29      1.0000 0.52640  0.90920  0.03980  Biso   1.000  C
  C30      1.0000 0.52790  0.03990  0.90760  Biso   1.000  C
  C31      1.0000 0.61780  0.88200  0.61800  Biso   1.000  C
  C32      1.0000 0.90750  0.04290  0.52660  Biso   1.000  C
  C33      1.0000 0.87840  0.61720  0.88610  Biso   1.000  C
  C34      1.0000 0.94830  0.55210  0.94590  Biso   1.000  C
  C35      1.0000 0.90920  0.52640  0.03980  Biso   1.000  C
  C36      1.0000 0.03990  0.52790  0.90760  Biso   1.000  C
  C37      1.0000 0.88200  0.61780  0.61800  Biso   1.000  C
  C38      1.0000 0.04290  0.90750  0.52660  Biso   1.000  C
  C39      1.0000 0.38280  0.12160  0.11390  Biso   1.000  C
  C40      1.0000 0.44790  0.05170  0.05410  Biso   1.000  C
  C41      1.0000 0.47360  0.09080  0.96020  Biso   1.000  C
  C42      1.0000 0.47210  0.96010  0.09240  Biso   1.000  C
  C43      1.0000 0.38220  0.11800  0.38200  Biso   1.000  C
  C44      1.0000 0.09250  0.95710  0.47340  Biso   1.000  C
  C45      1.0000 0.38310  0.38310  0.11400  Biso   1.000  C
  C46      1.0000 0.11690  0.11690  0.38110  Biso   1.000  C
  C47      1.0000 0.05150  0.05150  0.45050  Biso   1.000  C
  C48      1.0000 0.61690  0.61690  0.88600  Biso   1.000  C
  C49      1.0000 0.88310  0.88310  0.61890  Biso   1.000  C
  C50      1.0000 0.94850  0.94850  0.54950  Biso   1.000  C
  C51      1.0000 0.19980  0.36640  0.06970  Biso   1.000  C
  C52      1.0000 0.06940  0.36720  0.19730  Biso   1.000  C
  C53      1.0000 0.19960  0.36660  0.36560  Biso   1.000  C
  C54      1.0000 0.06800  0.36680  0.36570  Biso   1.000  C
  C55      1.0000 0.06830  0.19910  0.36730  Biso   1.000  C
  C56      1.0000 0.63360  0.80020  0.93030  Biso   1.000  C
  C57      1.0000 0.63280  0.93060  0.80270  Biso   1.000  C
  C58      1.0000 0.63340  0.80040  0.63440  Biso   1.000  C
  C59      1.0000 0.63320  0.93200  0.63430  Biso   1.000  C
  C60      1.0000 0.80090  0.93170  0.63270  Biso   1.000  C
  C61      1.0000 0.80020  0.63360  0.93030  Biso   1.000  C
  C62      1.0000 0.93060  0.63280  0.80270  Biso   1.000  C
  C63      1.0000 0.80040  0.63340  0.63440  Biso   1.000  C
  C64      1.0000 0.93200  0.63320  0.63430  Biso   1.000  C
  C65      1.0000 0.93170  0.80090  0.63270  Biso   1.000  C
  C66      1.0000 0.36640  0.19980  0.06970  Biso   1.000  C
  C67      1.0000 0.36720  0.06940  0.19730  Biso   1.000  C
  C68      1.0000 0.36660  0.19960  0.36560  Biso   1.000  C
  C69      1.0000 0.36680  0.06800  0.36570  Biso   1.000  C
  C70      1.0000 0.19910  0.06830  0.36730  Biso   1.000  C
  C71      1.0000 0.24870  0.24870  0.25120  Biso   1.000  C
  C72      1.0000 0.36630  0.36630  0.06820  Biso   1.000  C
  C73      1.0000 0.36620  0.36620  0.19910  Biso   1.000  C
  C74      1.0000 0.75130  0.75130  0.74880  Biso   1.000  C
  C75      1.0000 0.63370  0.63370  0.93180  Biso   1.000  C
  C76      1.0000 0.63380  0.63380  0.80090  Biso   1.000  C
  O1       1.0000 0.48185  0.34863  0.67658  Biso   1.000  O
  O2       1.0000 0.65744  0.34862  0.50100  Biso   1.000  O
  O3       1.0000 0.48184  0.34862  0.50100  Biso   1.000  O
  O4       1.0000 0.48185  0.52421  0.50100  Biso   1.000  O
  O5       1.0000 0.07951  0.93308  0.90993  Biso   1.000  O
  O6       1.0000 0.90393  0.93309  0.08552  Biso   1.000  O
  O7       1.0000 0.07952  0.75750  0.08552  Biso   1.000  O
  O8       1.0000 0.07952  0.93309  0.08552  Biso   1.000  O
  O9       1.0000 0.63156  0.18532  0.85340  Biso   1.000  O
  O10      1.0000 0.84082  0.18536  0.64414  Biso   1.000  O
  O11      1.0000 0.32518  0.49176  0.33775  Biso   1.000  O
  O12      1.0000 0.32518  0.70097  0.33775  Biso   1.000  O
  O13      1.0000 0.32519  0.70099  0.64414  Biso   1.000  O
  O14      1.0000 0.32515  0.49173  0.85340  Biso   1.000  O
  O15      1.0000 0.63159  0.18535  0.33775  Biso   1.000  O
  O16      1.0000 0.84080  0.18535  0.33775  Biso   1.000  O
  O17      1.0000 0.84080  0.49176  0.33775  Biso   1.000  O
  O18      1.0000 0.63159  0.70097  0.33775  Biso   1.000  O
  O19      1.0000 0.32519  0.18536  0.64414  Biso   1.000  O
  O20      1.0000 0.32515  0.18532  0.85340  Biso   1.000  O
  O21      1.0000 0.92980  0.09638  0.73312  Biso   1.000  O
  O22      1.0000 0.72055  0.09634  0.94237  Biso   1.000  O
  O23      1.0000 0.23619  0.58073  0.24877  Biso   1.000  O
  O24      1.0000 0.23619  0.78995  0.24877  Biso   1.000  O
  O25      1.0000 0.23617  0.09634  0.94237  Biso   1.000  O
  O26      1.0000 0.23621  0.09638  0.73312  Biso   1.000  O
  O27      1.0000 0.92978  0.58073  0.24877  Biso   1.000  O
  O28      1.0000 0.72056  0.78995  0.24877  Biso   1.000  O
  O29      1.0000 0.72056  0.09636  0.24877  Biso   1.000  O
  O30      1.0000 0.92978  0.09636  0.24877  Biso   1.000  O
  O31      1.0000 0.23617  0.58072  0.94237  Biso   1.000  O
  O32      1.0000 0.23621  0.78998  0.73312  Biso   1.000  O
  O33      1.0000 0.69427  0.16750  0.82632  Biso   1.000  O
  O34      1.0000 0.81374  0.16755  0.70685  Biso   1.000  O
  O35      1.0000 0.30736  0.55447  0.31993  Biso   1.000  O
  O36      1.0000 0.30736  0.67389  0.31993  Biso   1.000  O
  O37      1.0000 0.30738  0.67391  0.70685  Biso   1.000  O
  O38      1.0000 0.30733  0.55444  0.82632  Biso   1.000  O
  O39      1.0000 0.69430  0.16753  0.31993  Biso   1.000  O
  O40      1.0000 0.81372  0.16753  0.31993  Biso   1.000  O
  O41      1.0000 0.81372  0.55447  0.31993  Biso   1.000  O
  O42      1.0000 0.69430  0.67389  0.31993  Biso   1.000  O
  O43      1.0000 0.30738  0.16755  0.70685  Biso   1.000  O
  O44      1.0000 0.30733  0.16750  0.82632  Biso   1.000  O
  O45      1.0000 0.86710  0.11420  0.76019  Biso   1.000  O
  O46      1.0000 0.74762  0.11416  0.87967  Biso   1.000  O
  O47      1.0000 0.25401  0.60781  0.26658  Biso   1.000  O
  O48      1.0000 0.25400  0.72724  0.26658  Biso   1.000  O
  O49      1.0000 0.25398  0.11416  0.87967  Biso   1.000  O
  O50      1.0000 0.25403  0.11420  0.76019  Biso   1.000  O
  O51      1.0000 0.86707  0.60781  0.26658  Biso   1.000  O
  O52      1.0000 0.74764  0.72724  0.26658  Biso   1.000  O
  O53      1.0000 0.74764  0.11418  0.26658  Biso   1.000  O
  O54      1.0000 0.86707  0.11418  0.26658  Biso   1.000  O
  O55      1.0000 0.25399  0.60779  0.87967  Biso   1.000  O
  O56      1.0000 0.25403  0.72727  0.76019  Biso   1.000  O
  O57      1.0000 0.66517  0.25311  0.68430  Biso   1.000  O
  O58      1.0000 0.72365  0.19463  0.74278  Biso   1.000  O
  O59      1.0000 0.38632  0.53192  0.40549  Biso   1.000  O
  O60      1.0000 0.32784  0.59040  0.34701  Biso   1.000  O
  O61      1.0000 0.38634  0.53194  0.68430  Biso   1.000  O
  O62      1.0000 0.32786  0.59042  0.74278  Biso   1.000  O
  O63      1.0000 0.66515  0.25309  0.40549  Biso   1.000  O
  O64      1.0000 0.72363  0.19461  0.34701  Biso   1.000  O
  O65      1.0000 0.66515  0.53192  0.40549  Biso   1.000  O
  O66      1.0000 0.72363  0.59040  0.34701  Biso   1.000  O
  O67      1.0000 0.38634  0.25311  0.68430  Biso   1.000  O
  O68      1.0000 0.32786  0.19463  0.74278  Biso   1.000  O
  O69      1.0000 0.89620  0.02860  0.90221  Biso   1.000  O
  O70      1.0000 0.83771  0.08708  0.84373  Biso   1.000  O
  O71      1.0000 0.17504  0.74978  0.18103  Biso   1.000  O
  O72      1.0000 0.23353  0.69130  0.23951  Biso   1.000  O
  O73      1.0000 0.17503  0.02860  0.90221  Biso   1.000  O
  O74      1.0000 0.23351  0.08708  0.84373  Biso   1.000  O
  O75      1.0000 0.89621  0.74978  0.18103  Biso   1.000  O
  O76      1.0000 0.83773  0.69130  0.23951  Biso   1.000  O
  O77      1.0000 0.89621  0.02861  0.18103  Biso   1.000  O
  O78      1.0000 0.83773  0.08710  0.23951  Biso   1.000  O
  O79      1.0000 0.17503  0.74977  0.90221  Biso   1.000  O
  O80      1.0000 0.23351  0.69128  0.84373  Biso   1.000  O
  O81      1.0000 0.52575  0.39252  0.54489  Biso   1.000  O
  O82      1.0000 0.03562  0.88919  0.04162  Biso   1.000  O
  O83      1.0000 0.58181  0.27567  0.72254  Biso   1.000  O
  O84      1.0000 0.70340  0.27566  0.60095  Biso   1.000  O
  O85      1.0000 0.40888  0.44857  0.42804  Biso   1.000  O
  O86      1.0000 0.40888  0.57017  0.42804  Biso   1.000  O
  O87      1.0000 0.40889  0.57017  0.60095  Biso   1.000  O
  O88      1.0000 0.40890  0.44858  0.72254  Biso   1.000  O
  O89      1.0000 0.58180  0.27565  0.42804  Biso   1.000  O
  O90      1.0000 0.70339  0.27565  0.42804  Biso   1.000  O
  O91      1.0000 0.70339  0.44857  0.42804  Biso   1.000  O
  O92      1.0000 0.58180  0.57017  0.42804  Biso   1.000  O
  O93      1.0000 0.40889  0.27566  0.60095  Biso   1.000  O
  O94      1.0000 0.40890  0.27567  0.72254  Biso   1.000  O
  O95      1.0000 0.97955  0.00604  0.86397  Biso   1.000  O
  O96      1.0000 0.85796  0.00604  0.98557  Biso   1.000  O
  O97      1.0000 0.15248  0.71154  0.15847  Biso   1.000  O
  O98      1.0000 0.15248  0.83314  0.15847  Biso   1.000  O
  O99      1.0000 0.15247  0.00604  0.98557  Biso   1.000  O
  O100     1.0000 0.15247  0.00604  0.86397  Biso   1.000  O
  O101     1.0000 0.97957  0.71154  0.15847  Biso   1.000  O
  O102     1.0000 0.85797  0.83314  0.15847  Biso   1.000  O
  O103     1.0000 0.85797  0.00605  0.15847  Biso   1.000  O
  O104     1.0000 0.97957  0.00605  0.15847  Biso   1.000  O
  O105     1.0000 0.15247  0.71153  0.98557  Biso   1.000  O
