data_image0
_cell_length_a       18.101
_cell_length_b       18.101
_cell_length_c       18.101
_cell_angle_alpha    60.0036
_cell_angle_beta     60.0036
_cell_angle_gamma    60.0001

_symmetry_space_group_name_H-M    "P 1"
_symmetry_int_tables_number       1

loop_
  _symmetry_equiv_pos_as_xyz
  'x, y, z'

loop_
  _atom_site_label
  _atom_site_occupancy
  _atom_site_fract_x
  _atom_site_fract_y
  _atom_site_fract_z
  _atom_site_thermal_displace_type
  _atom_site_B_iso_or_equiv
  _atom_site_type_symbol
  C1       1.0000 0.11865  0.29385  0.29380  Biso   1.000  C
  C2       1.0000 0.70615  0.88135  0.70620  Biso   1.000  C
  C3       1.0000 0.88135  0.70615  0.70620  Biso   1.000  C
  C4       1.0000 0.29385  0.11865  0.29380  Biso   1.000  C
  C5       1.0000 0.29392  0.29392  0.11841  Biso   1.000  C
  C6       1.0000 0.29367  0.29367  0.29393  Biso   1.000  C
  C7       1.0000 0.70608  0.70608  0.88159  Biso   1.000  C
  C8       1.0000 0.70633  0.70633  0.70607  Biso   1.000  C
  C9       1.0000 0.15480  0.45200  0.93360  Biso   1.000  C
  C10      1.0000 0.93280  0.45040  0.15620  Biso   1.000  C
  C11      1.0000 0.93080  0.15620  0.44950  Biso   1.000  C
  C12      1.0000 0.54800  0.84520  0.06640  Biso   1.000  C
  C13      1.0000 0.54960  0.06720  0.84380  Biso   1.000  C
  C14      1.0000 0.84380  0.06920  0.55050  Biso   1.000  C
  C15      1.0000 0.84520  0.54800  0.06640  Biso   1.000  C
  C16      1.0000 0.06720  0.54960  0.84380  Biso   1.000  C
  C17      1.0000 0.06920  0.84380  0.55050  Biso   1.000  C
  C18      1.0000 0.45200  0.15480  0.93360  Biso   1.000  C
  C19      1.0000 0.45040  0.93280  0.15620  Biso   1.000  C
  C20      1.0000 0.15620  0.93080  0.44950  Biso   1.000  C
  C21      1.0000 0.12160  0.38280  0.11390  Biso   1.000  C
  C22      1.0000 0.05170  0.44790  0.05410  Biso   1.000  C
  C23      1.0000 0.09080  0.47360  0.96020  Biso   1.000  C
  C24      1.0000 0.96010  0.47210  0.09240  Biso   1.000  C
  C25      1.0000 0.11800  0.38220  0.38200  Biso   1.000  C
  C26      1.0000 0.95710  0.09250  0.47340  Biso   1.000  C
  C27      1.0000 0.61720  0.87840  0.88610  Biso   1.000  C
  C28      1.0000 0.55210  0.94830  0.94590  Biso   1.000  C
  C29      1.0000 0.52640  0.90920  0.03980  Biso   1.000  C
  C30      1.0000 0.52790  0.03990  0.90760  Biso   1.000  C
  C31      1.0000 0.61780  0.88200  0.61800  Biso   1.000  C
  C32      1.0000 0.90750  0.04290  0.52660  Biso   1.000  C
  C33      1.0000 0.87840  0.61720  0.88610  Biso   1.000  C
  C34      1.0000 0.94830  0.55210  0.94590  Biso   1.000  C
  C35      1.0000 0.90920  0.52640  0.03980  Biso   1.000  C
  C36      1.0000 0.03990  0.52790  0.90760  Biso   1.000  C
  C37      1.0000 0.88200  0.61780  0.61800  Biso   1.000  C
  C38      1.0000 0.04290  0.90750  0.52660  Biso   1.000  C
  C39      1.0000 0.38280  0.12160  0.11390  Biso   1.000  C
  C40      1.0000 0.44790  0.05170  0.05410  Biso   1.000  C
  C41      1.0000 0.47360  0.09080  0.96020  Biso   1.000  C
  C42      1.0000 0.47210  0.96010  0.09240  Biso   1.000  C
  C43      1.0000 0.38220  0.11800  0.38200  Biso   1.000  C
  C44      1.0000 0.09250  0.95710  0.47340  Biso   1.000  C
  C45      1.0000 0.38310  0.38310  0.11400  Biso   1.000  C
  C46      1.0000 0.11690  0.11690  0.38110  Biso   1.000  C
  C47      1.0000 0.05150  0.05150  0.45050  Biso   1.000  C
  C48      1.0000 0.61690  0.61690  0.88600  Biso   1.000  C
  C49      1.0000 0.88310  0.88310  0.61890  Biso   1.000  C
  C50      1.0000 0.94850  0.94850  0.54950  Biso   1.000  C
  C51      1.0000 0.19980  0.36640  0.06970  Biso   1.000  C
  C52      1.0000 0.06940  0.36720  0.19730  Biso   1.000  C
  C53      1.0000 0.19960  0.36660  0.36560  Biso   1.000  C
  C54      1.0000 0.06800  0.36680  0.36570  Biso   1.000  C
  C55      1.0000 0.06830  0.19910  0.36730  Biso   1.000  C
  C56      1.0000 0.63360  0.80020  0.93030  Biso   1.000  C
  C57      1.0000 0.63280  0.93060  0.80270  Biso   1.000  C
  C58      1.0000 0.63340  0.80040  0.63440  Biso   1.000  C
  C59      1.0000 0.63320  0.93200  0.63430  Biso   1.000  C
  C60      1.0000 0.80090  0.93170  0.63270  Biso   1.000  C
  C61      1.0000 0.80020  0.63360  0.93030  Biso   1.000  C
  C62      1.0000 0.93060  0.63280  0.80270  Biso   1.000  C
  C63      1.0000 0.80040  0.63340  0.63440  Biso   1.000  C
  C64      1.0000 0.93200  0.63320  0.63430  Biso   1.000  C
  C65      1.0000 0.93170  0.80090  0.63270  Biso   1.000  C
  C66      1.0000 0.36640  0.19980  0.06970  Biso   1.000  C
  C67      1.0000 0.36720  0.06940  0.19730  Biso   1.000  C
  C68      1.0000 0.36660  0.19960  0.36560  Biso   1.000  C
  C69      1.0000 0.36680  0.06800  0.36570  Biso   1.000  C
  C70      1.0000 0.19910  0.06830  0.36730  Biso   1.000  C
  C71      1.0000 0.24870  0.24870  0.25120  Biso   1.000  C
  C72      1.0000 0.36630  0.36630  0.06820  Biso   1.000  C
  C73      1.0000 0.36620  0.36620  0.19910  Biso   1.000  C
  C74      1.0000 0.75130  0.75130  0.74880  Biso   1.000  C
  C75      1.0000 0.63370  0.63370  0.93180  Biso   1.000  C
  C76      1.0000 0.63380  0.63380  0.80090  Biso   1.000  C
  O1       1.0000 0.19305  0.82930  0.00000  Biso   1.000  O
  O2       1.0000 0.60076  0.23700  0.59228  Biso   1.000  O
  O3       1.0000 0.42495  0.41281  0.59228  Biso   1.000  O
  O4       1.0000 0.01724  0.00511  0.00000  Biso   1.000  O
  O5       1.0000 0.01705  0.82910  0.17595  Biso   1.000  O
  O6       1.0000 0.01717  0.82923  0.99979  Biso   1.000  O
  O7       1.0000 0.60095  0.41300  0.41633  Biso   1.000  O
  O8       1.0000 0.60083  0.41288  0.59249  Biso   1.000  O
  O9       1.0000 0.85317  0.18122  0.14257  Biso   1.000  O
  O10      1.0000 0.85004  0.97165  0.35825  Biso   1.000  O
  O11      1.0000 0.85680  0.17920  0.83755  Biso   1.000  O
  O12      1.0000 0.85629  0.97044  0.83220  Biso   1.000  O
  O13      1.0000 0.36825  0.97105  0.83936  Biso   1.000  O
  O14      1.0000 0.24884  0.57689  0.44971  Biso   1.000  O
  O15      1.0000 0.45840  0.58001  0.23403  Biso   1.000  O
  O16      1.0000 0.25085  0.57326  0.75473  Biso   1.000  O
  O17      1.0000 0.45961  0.57376  0.76008  Biso   1.000  O
  O18      1.0000 0.45900  0.06180  0.75292  Biso   1.000  O
  O19      1.0000 0.76483  0.06089  0.44971  Biso   1.000  O
  O20      1.0000 0.76796  0.27045  0.23403  Biso   1.000  O
  O21      1.0000 0.76120  0.06291  0.75473  Biso   1.000  O
  O22      1.0000 0.76171  0.27166  0.76008  Biso   1.000  O
  O23      1.0000 0.24975  0.27106  0.75292  Biso   1.000  O
  O24      1.0000 0.36916  0.66522  0.14257  Biso   1.000  O
  O25      1.0000 0.15960  0.66209  0.35825  Biso   1.000  O
  O26      1.0000 0.36715  0.66885  0.83755  Biso   1.000  O
  O27      1.0000 0.15839  0.66834  0.83220  Biso   1.000  O
  O28      1.0000 0.15900  0.18031  0.83936  Biso   1.000  O
  O29      1.0000 0.85448  0.66653  0.14186  Biso   1.000  O
  O30      1.0000 0.85175  0.66381  0.36219  Biso   1.000  O
  O31      1.0000 0.76352  0.57558  0.45042  Biso   1.000  O
  O32      1.0000 0.76625  0.57830  0.23009  Biso   1.000  O
  O33      1.0000 0.92173  0.01491  0.18159  Biso   1.000  O
  O34      1.0000 0.86244  0.07239  0.24250  Biso   1.000  O
  O35      1.0000 0.83613  0.15449  0.20539  Biso   1.000  O
  O36      1.0000 0.83431  0.03437  0.33244  Biso   1.000  O
  O37      1.0000 0.92213  0.01370  0.90268  Biso   1.000  O
  O38      1.0000 0.86577  0.06987  0.84531  Biso   1.000  O
  O39      1.0000 0.83774  0.15328  0.81990  Biso   1.000  O
  O40      1.0000 0.83733  0.03296  0.81647  Biso   1.000  O
  O41      1.0000 0.34173  0.03367  0.81970  Biso   1.000  O
  O42      1.0000 0.41514  0.50832  0.41069  Biso   1.000  O
  O43      1.0000 0.35767  0.56761  0.34978  Biso   1.000  O
  O44      1.0000 0.27556  0.59393  0.38689  Biso   1.000  O
  O45      1.0000 0.39568  0.59574  0.25984  Biso   1.000  O
  O46      1.0000 0.41635  0.50792  0.68960  Biso   1.000  O
  O47      1.0000 0.36019  0.56429  0.74697  Biso   1.000  O
  O48      1.0000 0.27677  0.59232  0.77238  Biso   1.000  O
  O49      1.0000 0.39709  0.59272  0.77581  Biso   1.000  O
  O50      1.0000 0.39638  0.08832  0.77258  Biso   1.000  O
  O51      1.0000 0.69627  0.22720  0.41069  Biso   1.000  O
  O52      1.0000 0.75556  0.16972  0.34978  Biso   1.000  O
  O53      1.0000 0.78187  0.08761  0.38689  Biso   1.000  O
  O54      1.0000 0.78369  0.20774  0.25984  Biso   1.000  O
  O55      1.0000 0.69587  0.22841  0.68960  Biso   1.000  O
  O56      1.0000 0.75223  0.17224  0.74697  Biso   1.000  O
  O57      1.0000 0.78026  0.08882  0.77238  Biso   1.000  O
  O58      1.0000 0.78067  0.20915  0.77581  Biso   1.000  O
  O59      1.0000 0.27627  0.20844  0.77258  Biso   1.000  O
  O60      1.0000 0.20286  0.73379  0.18159  Biso   1.000  O
  O61      1.0000 0.26033  0.67450  0.24250  Biso   1.000  O
  O62      1.0000 0.34244  0.64818  0.20539  Biso   1.000  O
  O63      1.0000 0.22232  0.64636  0.33244  Biso   1.000  O
  O64      1.0000 0.20165  0.73419  0.90268  Biso   1.000  O
  O65      1.0000 0.25781  0.67782  0.84531  Biso   1.000  O
  O66      1.0000 0.34123  0.64979  0.81990  Biso   1.000  O
  O67      1.0000 0.22091  0.64939  0.81647  Biso   1.000  O
  O68      1.0000 0.22162  0.15379  0.81970  Biso   1.000  O
  O69      1.0000 0.92002  0.73207  0.18825  Biso   1.000  O
  O70      1.0000 0.86345  0.67550  0.24169  Biso   1.000  O
  O71      1.0000 0.83663  0.64868  0.20438  Biso   1.000  O
  O72      1.0000 0.83421  0.64626  0.33446  Biso   1.000  O
  O73      1.0000 0.19872  0.01078  0.90793  Biso   1.000  O
  O74      1.0000 0.25942  0.07148  0.84541  Biso   1.000  O
  O75      1.0000 0.69798  0.51004  0.40403  Biso   1.000  O
  O76      1.0000 0.75455  0.56660  0.35059  Biso   1.000  O
  O77      1.0000 0.78137  0.59343  0.38790  Biso   1.000  O
  O78      1.0000 0.78379  0.59585  0.25782  Biso   1.000  O
  O79      1.0000 0.41928  0.23133  0.68435  Biso   1.000  O
  O80      1.0000 0.35858  0.17063  0.74687  Biso   1.000  O
  O81      1.0000 0.94200  0.92850  0.22546  Biso   1.000  O
  O82      1.0000 0.94442  0.05575  0.09820  Biso   1.000  O
  O83      1.0000 0.94170  0.92739  0.92820  Biso   1.000  O
  O84      1.0000 0.94391  0.05424  0.92537  Biso   1.000  O
  O85      1.0000 0.24147  0.92709  0.92769  Biso   1.000  O
  O86      1.0000 0.50156  0.48805  0.36682  Biso   1.000  O
  O87      1.0000 0.37431  0.48563  0.49408  Biso   1.000  O
  O88      1.0000 0.50267  0.48836  0.66408  Biso   1.000  O
  O89      1.0000 0.37582  0.48614  0.66691  Biso   1.000  O
  O90      1.0000 0.50297  0.18858  0.66459  Biso   1.000  O
  O91      1.0000 0.67600  0.31361  0.36682  Biso   1.000  O
  O92      1.0000 0.67358  0.18636  0.49408  Biso   1.000  O
  O93      1.0000 0.67630  0.31472  0.66408  Biso   1.000  O
  O94      1.0000 0.67409  0.18787  0.66691  Biso   1.000  O
  O95      1.0000 0.37653  0.31502  0.66459  Biso   1.000  O
  O96      1.0000 0.11644  0.75405  0.22546  Biso   1.000  O
  O97      1.0000 0.24369  0.75647  0.09820  Biso   1.000  O
  O98      1.0000 0.11533  0.75375  0.92820  Biso   1.000  O
  O99      1.0000 0.24218  0.75597  0.92537  Biso   1.000  O
  O100     1.0000 0.11503  0.05353  0.92769  Biso   1.000  O
  O101     1.0000 0.06098  0.87304  0.04426  Biso   1.000  O
  O102     1.0000 0.94341  0.75547  0.22445  Biso   1.000  O
  O103     1.0000 0.94180  0.75385  0.10294  Biso   1.000  O
  O104     1.0000 0.55702  0.36907  0.54802  Biso   1.000  O
  O105     1.0000 0.67459  0.48664  0.36783  Biso   1.000  O
