data_image0
_cell_length_a       18.101
_cell_length_b       18.101
_cell_length_c       18.101
_cell_angle_alpha    60.0036
_cell_angle_beta     60.0036
_cell_angle_gamma    60.0001

_symmetry_space_group_name_H-M    "P 1"
_symmetry_int_tables_number       1

loop_
  _symmetry_equiv_pos_as_xyz
  'x, y, z'

loop_
  _atom_site_label
  _atom_site_occupancy
  _atom_site_fract_x
  _atom_site_fract_y
  _atom_site_fract_z
  _atom_site_thermal_displace_type
  _atom_site_B_iso_or_equiv
  _atom_site_type_symbol
  Zn1      1.0000 0.11865  0.29385  0.29380  Biso   1.000  Zn
  Zn2      1.0000 0.70615  0.88135  0.70620  Biso   1.000  Zn
  Zn3      1.0000 0.88135  0.70615  0.70620  Biso   1.000  Zn
  Zn4      1.0000 0.29385  0.11865  0.29380  Biso   1.000  Zn
  Zn5      1.0000 0.29392  0.29392  0.11841  Biso   1.000  Zn
  Zn6      1.0000 0.29367  0.29367  0.29393  Biso   1.000  Zn
  Zn7      1.0000 0.70608  0.70608  0.88159  Biso   1.000  Zn
  Zn8      1.0000 0.70633  0.70633  0.70607  Biso   1.000  Zn
  H1       1.0000 0.15480  0.45200  0.93360  Biso   1.000  H
  H2       1.0000 0.93280  0.45040  0.15620  Biso   1.000  H
  H3       1.0000 0.93080  0.15620  0.44950  Biso   1.000  H
  H4       1.0000 0.54800  0.84520  0.06640  Biso   1.000  H
  H5       1.0000 0.54960  0.06720  0.84380  Biso   1.000  H
  H6       1.0000 0.84380  0.06920  0.55050  Biso   1.000  H
  H7       1.0000 0.84520  0.54800  0.06640  Biso   1.000  H
  H8       1.0000 0.06720  0.54960  0.84380  Biso   1.000  H
  H9       1.0000 0.06920  0.84380  0.55050  Biso   1.000  H
  H10      1.0000 0.45200  0.15480  0.93360  Biso   1.000  H
  H11      1.0000 0.45040  0.93280  0.15620  Biso   1.000  H
  H12      1.0000 0.15620  0.93080  0.44950  Biso   1.000  H
  C1       1.0000 0.12160  0.38280  0.11390  Biso   1.000  C
  C2       1.0000 0.05170  0.44790  0.05410  Biso   1.000  C
  C3       1.0000 0.09080  0.47360  0.96020  Biso   1.000  C
  C4       1.0000 0.96010  0.47210  0.09240  Biso   1.000  C
  C5       1.0000 0.11800  0.38220  0.38200  Biso   1.000  C
  C6       1.0000 0.95710  0.09250  0.47340  Biso   1.000  C
  C7       1.0000 0.61720  0.87840  0.88610  Biso   1.000  C
  C8       1.0000 0.55210  0.94830  0.94590  Biso   1.000  C
  C9       1.0000 0.52640  0.90920  0.03980  Biso   1.000  C
  C10      1.0000 0.52790  0.03990  0.90760  Biso   1.000  C
  C11      1.0000 0.61780  0.88200  0.61800  Biso   1.000  C
  C12      1.0000 0.90750  0.04290  0.52660  Biso   1.000  C
  C13      1.0000 0.87840  0.61720  0.88610  Biso   1.000  C
  C14      1.0000 0.94830  0.55210  0.94590  Biso   1.000  C
  C15      1.0000 0.90920  0.52640  0.03980  Biso   1.000  C
  C16      1.0000 0.03990  0.52790  0.90760  Biso   1.000  C
  C17      1.0000 0.88200  0.61780  0.61800  Biso   1.000  C
  C18      1.0000 0.04290  0.90750  0.52660  Biso   1.000  C
  C19      1.0000 0.38280  0.12160  0.11390  Biso   1.000  C
  C20      1.0000 0.44790  0.05170  0.05410  Biso   1.000  C
  C21      1.0000 0.47360  0.09080  0.96020  Biso   1.000  C
  C22      1.0000 0.47210  0.96010  0.09240  Biso   1.000  C
  C23      1.0000 0.38220  0.11800  0.38200  Biso   1.000  C
  C24      1.0000 0.09250  0.95710  0.47340  Biso   1.000  C
  C25      1.0000 0.38310  0.38310  0.11400  Biso   1.000  C
  C26      1.0000 0.11690  0.11690  0.38110  Biso   1.000  C
  C27      1.0000 0.05150  0.05150  0.45050  Biso   1.000  C
  C28      1.0000 0.61690  0.61690  0.88600  Biso   1.000  C
  C29      1.0000 0.88310  0.88310  0.61890  Biso   1.000  C
  C30      1.0000 0.94850  0.94850  0.54950  Biso   1.000  C
  O1       1.0000 0.19980  0.36640  0.06970  Biso   1.000  O
  O2       1.0000 0.06940  0.36720  0.19730  Biso   1.000  O
  O3       1.0000 0.19960  0.36660  0.36560  Biso   1.000  O
  O4       1.0000 0.06800  0.36680  0.36570  Biso   1.000  O
  O5       1.0000 0.06830  0.19910  0.36730  Biso   1.000  O
  O6       1.0000 0.63360  0.80020  0.93030  Biso   1.000  O
  O7       1.0000 0.63280  0.93060  0.80270  Biso   1.000  O
  O8       1.0000 0.63340  0.80040  0.63440  Biso   1.000  O
  O9       1.0000 0.63320  0.93200  0.63430  Biso   1.000  O
  O10      1.0000 0.80090  0.93170  0.63270  Biso   1.000  O
  O11      1.0000 0.80020  0.63360  0.93030  Biso   1.000  O
  O12      1.0000 0.93060  0.63280  0.80270  Biso   1.000  O
  O13      1.0000 0.80040  0.63340  0.63440  Biso   1.000  O
  O14      1.0000 0.93200  0.63320  0.63430  Biso   1.000  O
  O15      1.0000 0.93170  0.80090  0.63270  Biso   1.000  O
  O16      1.0000 0.36640  0.19980  0.06970  Biso   1.000  O
  O17      1.0000 0.36720  0.06940  0.19730  Biso   1.000  O
  O18      1.0000 0.36660  0.19960  0.36560  Biso   1.000  O
  O19      1.0000 0.36680  0.06800  0.36570  Biso   1.000  O
  O20      1.0000 0.19910  0.06830  0.36730  Biso   1.000  O
  O21      1.0000 0.24870  0.24870  0.25120  Biso   1.000  O
  O22      1.0000 0.36630  0.36630  0.06820  Biso   1.000  O
  O23      1.0000 0.36620  0.36620  0.19910  Biso   1.000  O
  O24      1.0000 0.75130  0.75130  0.74880  Biso   1.000  O
  O25      1.0000 0.63370  0.63370  0.93180  Biso   1.000  O
  O26      1.0000 0.63380  0.63380  0.80090  Biso   1.000  O
  Zn9      1.0000 0.00000  0.00000  0.00000  Biso   1.000  Zn
  Zn10     1.0000 0.17494  0.82506  0.00000  Biso   1.000  Zn
  Zn11     1.0000 1.00000  0.82506  0.00000  Biso   1.000  Zn
  Zn12     1.0000 0.00001  0.82507  0.17493  Biso   1.000  Zn
  Zn13     1.0000 0.41759  0.41759  0.59247  Biso   1.000  Zn
  Zn14     1.0000 0.59253  0.24265  0.59247  Biso   1.000  Zn
  Zn15     1.0000 0.59253  0.41759  0.59247  Biso   1.000  Zn
  Zn16     1.0000 0.59252  0.41758  0.41753  Biso   1.000  Zn
  H13      1.0000 0.84111  0.18574  0.84113  Biso   1.000  H
  H14      1.0000 0.36070  0.66618  0.13201  Biso   1.000  H
  H15      1.0000 0.84111  0.95706  0.84113  Biso   1.000  H
  H16      1.0000 0.13203  0.66620  0.36067  Biso   1.000  H
  H17      1.0000 0.84112  0.66618  0.13201  Biso   1.000  H
  H18      1.0000 0.36068  0.95706  0.84113  Biso   1.000  H
  H19      1.0000 0.84114  0.66620  0.36067  Biso   1.000  H
  H20      1.0000 0.13201  0.18574  0.84113  Biso   1.000  H
  H21      1.0000 0.84114  0.95709  0.36067  Biso   1.000  H
  H22      1.0000 0.36068  0.66617  0.84113  Biso   1.000  H
  H23      1.0000 0.84113  0.18576  0.13201  Biso   1.000  H
  H24      1.0000 0.13200  0.66617  0.84113  Biso   1.000  H
  H25      1.0000 0.23185  0.57648  0.75134  Biso   1.000  H
  H26      1.0000 0.75140  0.05689  0.46046  Biso   1.000  H
  H27      1.0000 0.46053  0.57648  0.75134  Biso   1.000  H
  H28      1.0000 0.75139  0.28555  0.23180  Biso   1.000  H
  H29      1.0000 0.75141  0.57646  0.46046  Biso   1.000  H
  H30      1.0000 0.46053  0.05691  0.75134  Biso   1.000  H
  H31      1.0000 0.75139  0.57645  0.23180  Biso   1.000  H
  H32      1.0000 0.23185  0.28558  0.75134  Biso   1.000  H
  H33      1.0000 0.46050  0.57645  0.23180  Biso   1.000  H
  H34      1.0000 0.75142  0.05691  0.75134  Biso   1.000  H
  H35      1.0000 0.23183  0.57646  0.46046  Biso   1.000  H
  H36      1.0000 0.75142  0.28558  0.75134  Biso   1.000  H
  C31      1.0000 0.81848  0.15988  0.81850  Biso   1.000  C
  C32      1.0000 0.33484  0.64356  0.20311  Biso   1.000  C
  C33      1.0000 0.81848  0.02817  0.81850  Biso   1.000  C
  C34      1.0000 0.20314  0.64357  0.33481  Biso   1.000  C
  C35      1.0000 0.81850  0.64356  0.20311  Biso   1.000  C
  C36      1.0000 0.33482  0.02817  0.81850  Biso   1.000  C
  C37      1.0000 0.81851  0.64357  0.33481  Biso   1.000  C
  C38      1.0000 0.20311  0.15988  0.81850  Biso   1.000  C
  C39      1.0000 0.81851  0.02820  0.33481  Biso   1.000  C
  C40      1.0000 0.33482  0.64354  0.81850  Biso   1.000  C
  C41      1.0000 0.81850  0.15990  0.20311  Biso   1.000  C
  C42      1.0000 0.20311  0.64354  0.81850  Biso   1.000  C
  C43      1.0000 0.25771  0.59910  0.77396  Biso   1.000  C
  C44      1.0000 0.77403  0.08274  0.38935  Biso   1.000  C
  C45      1.0000 0.38942  0.59910  0.77396  Biso   1.000  C
  C46      1.0000 0.77402  0.21445  0.25765  Biso   1.000  C
  C47      1.0000 0.77403  0.59908  0.38935  Biso   1.000  C
  C48      1.0000 0.38942  0.08276  0.77396  Biso   1.000  C
  C49      1.0000 0.77402  0.59908  0.25765  Biso   1.000  C
  C50      1.0000 0.25771  0.21448  0.77396  Biso   1.000  C
  C51      1.0000 0.38939  0.59908  0.25765  Biso   1.000  C
  C52      1.0000 0.77405  0.08276  0.77396  Biso   1.000  C
  C53      1.0000 0.25769  0.59908  0.38935  Biso   1.000  C
  C54      1.0000 0.77405  0.21448  0.77396  Biso   1.000  C
  C55      1.0000 0.90303  0.00949  0.90304  Biso   1.000  C
  C56      1.0000 0.84596  0.06655  0.84598  Biso   1.000  C
  C57      1.0000 0.18445  0.72810  0.18443  Biso   1.000  C
  C58      1.0000 0.24152  0.67104  0.24149  Biso   1.000  C
  C59      1.0000 0.90304  0.72810  0.18443  Biso   1.000  C
  C60      1.0000 0.84598  0.67104  0.24149  Biso   1.000  C
  C61      1.0000 0.18443  0.00949  0.90304  Biso   1.000  C
  C62      1.0000 0.24150  0.06655  0.84598  Biso   1.000  C
  C63      1.0000 0.90304  0.00950  0.18443  Biso   1.000  C
  C64      1.0000 0.84598  0.06658  0.24149  Biso   1.000  C
  C65      1.0000 0.18443  0.72809  0.90304  Biso   1.000  C
  C66      1.0000 0.24149  0.67102  0.84598  Biso   1.000  C
  C67      1.0000 0.40810  0.51456  0.68943  Biso   1.000  C
  C68      1.0000 0.35104  0.57163  0.74649  Biso   1.000  C
  C69      1.0000 0.68949  0.23314  0.40804  Biso   1.000  C
  C70      1.0000 0.74655  0.17607  0.35098  Biso   1.000  C
  C71      1.0000 0.68949  0.51454  0.40804  Biso   1.000  C
  C72      1.0000 0.74655  0.57161  0.35098  Biso   1.000  C
  C73      1.0000 0.40810  0.23316  0.68943  Biso   1.000  C
  C74      1.0000 0.35104  0.17609  0.74649  Biso   1.000  C
  C75      1.0000 0.40809  0.51454  0.40804  Biso   1.000  C
  C76      1.0000 0.35101  0.57161  0.35098  Biso   1.000  C
  C77      1.0000 0.68950  0.23316  0.68943  Biso   1.000  C
  C78      1.0000 0.74657  0.17609  0.74649  Biso   1.000  C
  O27      1.0000 0.04374  0.86880  0.04373  Biso   1.000  O
  O28      1.0000 0.54879  0.37385  0.54873  Biso   1.000  O
  O29      1.0000 0.92687  0.04727  0.92688  Biso   1.000  O
  O30      1.0000 0.22222  0.75194  0.09898  Biso   1.000  O
  O31      1.0000 0.92687  0.92404  0.92688  Biso   1.000  O
  O32      1.0000 0.09900  0.75194  0.22220  Biso   1.000  O
  O33      1.0000 0.92688  0.75194  0.09898  Biso   1.000  O
  O34      1.0000 0.22221  0.92404  0.92688  Biso   1.000  O
  O35      1.0000 0.92688  0.75194  0.22220  Biso   1.000  O
  O36      1.0000 0.09898  0.04727  0.92688  Biso   1.000  O
  O37      1.0000 0.92688  0.92406  0.22220  Biso   1.000  O
  O38      1.0000 0.22221  0.75193  0.92688  Biso   1.000  O
  O39      1.0000 0.92688  0.04728  0.09898  Biso   1.000  O
  O40      1.0000 0.09898  0.75193  0.92688  Biso   1.000  O
  O41      1.0000 0.37032  0.49072  0.66559  Biso   1.000  O
  O42      1.0000 0.66565  0.19537  0.49349  Biso   1.000  O
  O43      1.0000 0.49355  0.49072  0.66559  Biso   1.000  O
  O44      1.0000 0.66565  0.31859  0.37027  Biso   1.000  O
  O45      1.0000 0.66565  0.49071  0.49349  Biso   1.000  O
  O46      1.0000 0.49355  0.19538  0.66559  Biso   1.000  O
  O47      1.0000 0.66565  0.49070  0.37027  Biso   1.000  O
  O48      1.0000 0.37032  0.31861  0.66559  Biso   1.000  O
  O49      1.0000 0.49353  0.49070  0.37027  Biso   1.000  O
  O50      1.0000 0.66566  0.19538  0.66559  Biso   1.000  O
  O51      1.0000 0.37031  0.49071  0.49349  Biso   1.000  O
