data_image0
_cell_length_a       18.101
_cell_length_b       18.101
_cell_length_c       18.101
_cell_angle_alpha    60.0036
_cell_angle_beta     60.0036
_cell_angle_gamma    60.0001

_symmetry_space_group_name_H-M    "P 1"
_symmetry_int_tables_number       1

loop_
  _symmetry_equiv_pos_as_xyz
  'x, y, z'

loop_
  _atom_site_label
  _atom_site_occupancy
  _atom_site_fract_x
  _atom_site_fract_y
  _atom_site_fract_z
  _atom_site_thermal_displace_type
  _atom_site_B_iso_or_equiv
  _atom_site_type_symbol
  Zn1      1.0000 0.11865  0.29385  0.29380  Biso   1.000  Zn
  Zn2      1.0000 0.70615  0.88135  0.70620  Biso   1.000  Zn
  Zn3      1.0000 0.88135  0.70615  0.70620  Biso   1.000  Zn
  Zn4      1.0000 0.29385  0.11865  0.29380  Biso   1.000  Zn
  Zn5      1.0000 0.29392  0.29392  0.11841  Biso   1.000  Zn
  Zn6      1.0000 0.29367  0.29367  0.29393  Biso   1.000  Zn
  Zn7      1.0000 0.70608  0.70608  0.88159  Biso   1.000  Zn
  Zn8      1.0000 0.70633  0.70633  0.70607  Biso   1.000  Zn
  H1       1.0000 0.15480  0.45200  0.93360  Biso   1.000  H
  H2       1.0000 0.93280  0.45040  0.15620  Biso   1.000  H
  H3       1.0000 0.93080  0.15620  0.44950  Biso   1.000  H
  H4       1.0000 0.54800  0.84520  0.06640  Biso   1.000  H
  H5       1.0000 0.54960  0.06720  0.84380  Biso   1.000  H
  H6       1.0000 0.84380  0.06920  0.55050  Biso   1.000  H
  H7       1.0000 0.84520  0.54800  0.06640  Biso   1.000  H
  H8       1.0000 0.06720  0.54960  0.84380  Biso   1.000  H
  H9       1.0000 0.06920  0.84380  0.55050  Biso   1.000  H
  H10      1.0000 0.45200  0.15480  0.93360  Biso   1.000  H
  H11      1.0000 0.45040  0.93280  0.15620  Biso   1.000  H
  H12      1.0000 0.15620  0.93080  0.44950  Biso   1.000  H
  C1       1.0000 0.12160  0.38280  0.11390  Biso   1.000  C
  C2       1.0000 0.05170  0.44790  0.05410  Biso   1.000  C
  C3       1.0000 0.09080  0.47360  0.96020  Biso   1.000  C
  C4       1.0000 0.96010  0.47210  0.09240  Biso   1.000  C
  C5       1.0000 0.11800  0.38220  0.38200  Biso   1.000  C
  C6       1.0000 0.95710  0.09250  0.47340  Biso   1.000  C
  C7       1.0000 0.61720  0.87840  0.88610  Biso   1.000  C
  C8       1.0000 0.55210  0.94830  0.94590  Biso   1.000  C
  C9       1.0000 0.52640  0.90920  0.03980  Biso   1.000  C
  C10      1.0000 0.52790  0.03990  0.90760  Biso   1.000  C
  C11      1.0000 0.61780  0.88200  0.61800  Biso   1.000  C
  C12      1.0000 0.90750  0.04290  0.52660  Biso   1.000  C
  C13      1.0000 0.87840  0.61720  0.88610  Biso   1.000  C
  C14      1.0000 0.94830  0.55210  0.94590  Biso   1.000  C
  C15      1.0000 0.90920  0.52640  0.03980  Biso   1.000  C
  C16      1.0000 0.03990  0.52790  0.90760  Biso   1.000  C
  C17      1.0000 0.88200  0.61780  0.61800  Biso   1.000  C
  C18      1.0000 0.04290  0.90750  0.52660  Biso   1.000  C
  C19      1.0000 0.38280  0.12160  0.11390  Biso   1.000  C
  C20      1.0000 0.44790  0.05170  0.05410  Biso   1.000  C
  C21      1.0000 0.47360  0.09080  0.96020  Biso   1.000  C
  C22      1.0000 0.47210  0.96010  0.09240  Biso   1.000  C
  C23      1.0000 0.38220  0.11800  0.38200  Biso   1.000  C
  C24      1.0000 0.09250  0.95710  0.47340  Biso   1.000  C
  C25      1.0000 0.38310  0.38310  0.11400  Biso   1.000  C
  C26      1.0000 0.11690  0.11690  0.38110  Biso   1.000  C
  C27      1.0000 0.05150  0.05150  0.45050  Biso   1.000  C
  C28      1.0000 0.61690  0.61690  0.88600  Biso   1.000  C
  C29      1.0000 0.88310  0.88310  0.61890  Biso   1.000  C
  C30      1.0000 0.94850  0.94850  0.54950  Biso   1.000  C
  O1       1.0000 0.19980  0.36640  0.06970  Biso   1.000  O
  O2       1.0000 0.06940  0.36720  0.19730  Biso   1.000  O
  O3       1.0000 0.19960  0.36660  0.36560  Biso   1.000  O
  O4       1.0000 0.06800  0.36680  0.36570  Biso   1.000  O
  O5       1.0000 0.06830  0.19910  0.36730  Biso   1.000  O
  O6       1.0000 0.63360  0.80020  0.93030  Biso   1.000  O
  O7       1.0000 0.63280  0.93060  0.80270  Biso   1.000  O
  O8       1.0000 0.63340  0.80040  0.63440  Biso   1.000  O
  O9       1.0000 0.63320  0.93200  0.63430  Biso   1.000  O
  O10      1.0000 0.80090  0.93170  0.63270  Biso   1.000  O
  O11      1.0000 0.80020  0.63360  0.93030  Biso   1.000  O
  O12      1.0000 0.93060  0.63280  0.80270  Biso   1.000  O
  O13      1.0000 0.80040  0.63340  0.63440  Biso   1.000  O
  O14      1.0000 0.93200  0.63320  0.63430  Biso   1.000  O
  O15      1.0000 0.93170  0.80090  0.63270  Biso   1.000  O
  O16      1.0000 0.36640  0.19980  0.06970  Biso   1.000  O
  O17      1.0000 0.36720  0.06940  0.19730  Biso   1.000  O
  O18      1.0000 0.36660  0.19960  0.36560  Biso   1.000  O
  O19      1.0000 0.36680  0.06800  0.36570  Biso   1.000  O
  O20      1.0000 0.19910  0.06830  0.36730  Biso   1.000  O
  O21      1.0000 0.24870  0.24870  0.25120  Biso   1.000  O
  O22      1.0000 0.36630  0.36630  0.06820  Biso   1.000  O
  O23      1.0000 0.36620  0.36620  0.19910  Biso   1.000  O
  O24      1.0000 0.75130  0.75130  0.74880  Biso   1.000  O
  O25      1.0000 0.63370  0.63370  0.93180  Biso   1.000  O
  O26      1.0000 0.63380  0.63380  0.80090  Biso   1.000  O
  Zn9      1.0000 0.48185  0.34863  0.67658  Biso   1.000  Zn
  Zn10     1.0000 0.65741  0.34862  0.50102  Biso   1.000  Zn
  Zn11     1.0000 0.48184  0.34862  0.50102  Biso   1.000  Zn
  Zn12     1.0000 0.48185  0.52418  0.50102  Biso   1.000  Zn
  Zn13     1.0000 0.08078  0.93265  0.90955  Biso   1.000  Zn
  Zn14     1.0000 0.90522  0.93266  0.08511  Biso   1.000  Zn
  Zn15     1.0000 0.08079  0.75709  0.08511  Biso   1.000  Zn
  Zn16     1.0000 0.08079  0.93266  0.08511  Biso   1.000  Zn
  H13      1.0000 0.63229  0.18494  0.85344  Biso   1.000  H
  H14      1.0000 0.84168  0.18498  0.64404  Biso   1.000  H
  H15      1.0000 0.32565  0.49164  0.33739  Biso   1.000  H
  H16      1.0000 0.32565  0.70099  0.33739  Biso   1.000  H
  H17      1.0000 0.32566  0.70100  0.64404  Biso   1.000  H
  H18      1.0000 0.32562  0.49161  0.85344  Biso   1.000  H
  H19      1.0000 0.63232  0.18497  0.33739  Biso   1.000  H
  H20      1.0000 0.84167  0.18497  0.33739  Biso   1.000  H
  H21      1.0000 0.84167  0.49164  0.33739  Biso   1.000  H
  H22      1.0000 0.63232  0.70099  0.33739  Biso   1.000  H
  H23      1.0000 0.32566  0.18498  0.64404  Biso   1.000  H
  H24      1.0000 0.32562  0.18494  0.85344  Biso   1.000  H
  H25      1.0000 0.93034  0.09633  0.73269  Biso   1.000  H
  H26      1.0000 0.72095  0.09629  0.94209  Biso   1.000  H
  H27      1.0000 0.23699  0.58029  0.24874  Biso   1.000  H
  H28      1.0000 0.23699  0.78964  0.24874  Biso   1.000  H
  H29      1.0000 0.23697  0.09629  0.94209  Biso   1.000  H
  H30      1.0000 0.23701  0.09633  0.73269  Biso   1.000  H
  H31      1.0000 0.93032  0.58029  0.24874  Biso   1.000  H
  H32      1.0000 0.72097  0.78964  0.24874  Biso   1.000  H
  H33      1.0000 0.72097  0.09631  0.24874  Biso   1.000  H
  H34      1.0000 0.93032  0.09631  0.24874  Biso   1.000  H
  H35      1.0000 0.23697  0.58027  0.94209  Biso   1.000  H
  H36      1.0000 0.23701  0.78966  0.73269  Biso   1.000  H
  C31      1.0000 0.69475  0.16721  0.82644  Biso   1.000  C
  C32      1.0000 0.81469  0.16726  0.70650  Biso   1.000  C
  C33      1.0000 0.30792  0.55410  0.31966  Biso   1.000  C
  C34      1.0000 0.30791  0.67399  0.31966  Biso   1.000  C
  C35      1.0000 0.30794  0.67401  0.70650  Biso   1.000  C
  C36      1.0000 0.30789  0.55407  0.82644  Biso   1.000  C
  C37      1.0000 0.69478  0.16723  0.31966  Biso   1.000  C
  C38      1.0000 0.81467  0.16724  0.31966  Biso   1.000  C
  C39      1.0000 0.81467  0.55410  0.31966  Biso   1.000  C
  C40      1.0000 0.69478  0.67399  0.31966  Biso   1.000  C
  C41      1.0000 0.30794  0.16726  0.70650  Biso   1.000  C
  C42      1.0000 0.30789  0.16721  0.82644  Biso   1.000  C
  C43      1.0000 0.86788  0.11407  0.75969  Biso   1.000  C
  C44      1.0000 0.74795  0.11402  0.87963  Biso   1.000  C
  C45      1.0000 0.25472  0.60729  0.26647  Biso   1.000  C
  C46      1.0000 0.25472  0.72718  0.26647  Biso   1.000  C
  C47      1.0000 0.25470  0.11402  0.87963  Biso   1.000  C
  C48      1.0000 0.25475  0.11407  0.75969  Biso   1.000  C
  C49      1.0000 0.86786  0.60729  0.26647  Biso   1.000  C
  C50      1.0000 0.74797  0.72718  0.26647  Biso   1.000  C
  C51      1.0000 0.74797  0.11404  0.26647  Biso   1.000  C
  C52      1.0000 0.86786  0.11404  0.26647  Biso   1.000  C
  C53      1.0000 0.25470  0.60727  0.87963  Biso   1.000  C
  C54      1.0000 0.25475  0.72720  0.75969  Biso   1.000  C
  C55      1.0000 0.66538  0.25289  0.68454  Biso   1.000  C
  C56      1.0000 0.72352  0.19476  0.74267  Biso   1.000  C
  C57      1.0000 0.38610  0.53214  0.40529  Biso   1.000  C
  C58      1.0000 0.32797  0.59027  0.34716  Biso   1.000  C
  C59      1.0000 0.38612  0.53215  0.68454  Biso   1.000  C
  C60      1.0000 0.32799  0.59029  0.74267  Biso   1.000  C
  C61      1.0000 0.66537  0.25287  0.40529  Biso   1.000  C
  C62      1.0000 0.72349  0.19474  0.34716  Biso   1.000  C
  C63      1.0000 0.66537  0.53214  0.40529  Biso   1.000  C
  C64      1.0000 0.72349  0.59027  0.34716  Biso   1.000  C
  C65      1.0000 0.38612  0.25289  0.68454  Biso   1.000  C
  C66      1.0000 0.32799  0.19476  0.74267  Biso   1.000  C
  C67      1.0000 0.89725  0.02839  0.90159  Biso   1.000  C
  C68      1.0000 0.83912  0.08651  0.84346  Biso   1.000  C
  C69      1.0000 0.17653  0.74913  0.18084  Biso   1.000  C
  C70      1.0000 0.23467  0.69101  0.23897  Biso   1.000  C
  C71      1.0000 0.17652  0.02839  0.90159  Biso   1.000  C
  C72      1.0000 0.23465  0.08651  0.84346  Biso   1.000  C
  C73      1.0000 0.89727  0.74913  0.18084  Biso   1.000  C
  C74      1.0000 0.83914  0.69101  0.23897  Biso   1.000  C
  C75      1.0000 0.89727  0.02840  0.18084  Biso   1.000  C
  C76      1.0000 0.83914  0.08653  0.23897  Biso   1.000  C
  C77      1.0000 0.17652  0.74912  0.90159  Biso   1.000  C
  C78      1.0000 0.23464  0.69099  0.84346  Biso   1.000  C
  O27      1.0000 0.52574  0.39251  0.54491  Biso   1.000  O
  O28      1.0000 0.03689  0.88876  0.04121  Biso   1.000  O
  O29      1.0000 0.58149  0.27561  0.72299  Biso   1.000  O
  O30      1.0000 0.70383  0.27560  0.60065  Biso   1.000  O
  O31      1.0000 0.40882  0.44825  0.42801  Biso   1.000  O
  O32      1.0000 0.40882  0.57059  0.42801  Biso   1.000  O
  O33      1.0000 0.40883  0.57060  0.60065  Biso   1.000  O
  O34      1.0000 0.40884  0.44827  0.72299  Biso   1.000  O
  O35      1.0000 0.58148  0.27559  0.42801  Biso   1.000  O
  O36      1.0000 0.70382  0.27559  0.42801  Biso   1.000  O
  O37      1.0000 0.70382  0.44825  0.42801  Biso   1.000  O
  O38      1.0000 0.58148  0.57059  0.42801  Biso   1.000  O
  O39      1.0000 0.40883  0.27560  0.60065  Biso   1.000  O
  O40      1.0000 0.40884  0.27561  0.72299  Biso   1.000  O
  O41      1.0000 0.98114  0.00567  0.86314  Biso   1.000  O
  O42      1.0000 0.85880  0.00567  0.98548  Biso   1.000  O
  O43      1.0000 0.15381  0.71068  0.15812  Biso   1.000  O
  O44      1.0000 0.15381  0.83302  0.15812  Biso   1.000  O
  O45      1.0000 0.15380  0.00567  0.98548  Biso   1.000  O
  O46      1.0000 0.15380  0.00567  0.86314  Biso   1.000  O
  O47      1.0000 0.98116  0.71068  0.15812  Biso   1.000  O
  O48      1.0000 0.85881  0.83302  0.15812  Biso   1.000  O
  O49      1.0000 0.85881  0.00568  0.15812  Biso   1.000  O
  O50      1.0000 0.98116  0.00568  0.15812  Biso   1.000  O
  O51      1.0000 0.15380  0.71067  0.98548  Biso   1.000  O
