data_image0
_cell_length_a       18.101
_cell_length_b       18.101
_cell_length_c       18.101
_cell_angle_alpha    60.0036
_cell_angle_beta     60.0036
_cell_angle_gamma    60.0001

_symmetry_space_group_name_H-M    "P 1"
_symmetry_int_tables_number       1

loop_
  _symmetry_equiv_pos_as_xyz
  'x, y, z'

loop_
  _atom_site_label
  _atom_site_occupancy
  _atom_site_fract_x
  _atom_site_fract_y
  _atom_site_fract_z
  _atom_site_thermal_displace_type
  _atom_site_B_iso_or_equiv
  _atom_site_type_symbol
  Zn1      1.0000 0.11865  0.29385  0.29380  Biso   1.000  Zn
  Zn2      1.0000 0.70615  0.88135  0.70620  Biso   1.000  Zn
  Zn3      1.0000 0.88135  0.70615  0.70620  Biso   1.000  Zn
  Zn4      1.0000 0.29385  0.11865  0.29380  Biso   1.000  Zn
  Zn5      1.0000 0.29392  0.29392  0.11841  Biso   1.000  Zn
  Zn6      1.0000 0.29367  0.29367  0.29393  Biso   1.000  Zn
  Zn7      1.0000 0.70608  0.70608  0.88159  Biso   1.000  Zn
  Zn8      1.0000 0.70633  0.70633  0.70607  Biso   1.000  Zn
  H1       1.0000 0.15480  0.45200  0.93360  Biso   1.000  H
  H2       1.0000 0.93280  0.45040  0.15620  Biso   1.000  H
  H3       1.0000 0.93080  0.15620  0.44950  Biso   1.000  H
  H4       1.0000 0.54800  0.84520  0.06640  Biso   1.000  H
  H5       1.0000 0.54960  0.06720  0.84380  Biso   1.000  H
  H6       1.0000 0.84380  0.06920  0.55050  Biso   1.000  H
  H7       1.0000 0.84520  0.54800  0.06640  Biso   1.000  H
  H8       1.0000 0.06720  0.54960  0.84380  Biso   1.000  H
  H9       1.0000 0.06920  0.84380  0.55050  Biso   1.000  H
  H10      1.0000 0.45200  0.15480  0.93360  Biso   1.000  H
  H11      1.0000 0.45040  0.93280  0.15620  Biso   1.000  H
  H12      1.0000 0.15620  0.93080  0.44950  Biso   1.000  H
  C1       1.0000 0.12160  0.38280  0.11390  Biso   1.000  C
  C2       1.0000 0.05170  0.44790  0.05410  Biso   1.000  C
  C3       1.0000 0.09080  0.47360  0.96020  Biso   1.000  C
  C4       1.0000 0.96010  0.47210  0.09240  Biso   1.000  C
  C5       1.0000 0.11800  0.38220  0.38200  Biso   1.000  C
  C6       1.0000 0.95710  0.09250  0.47340  Biso   1.000  C
  C7       1.0000 0.61720  0.87840  0.88610  Biso   1.000  C
  C8       1.0000 0.55210  0.94830  0.94590  Biso   1.000  C
  C9       1.0000 0.52640  0.90920  0.03980  Biso   1.000  C
  C10      1.0000 0.52790  0.03990  0.90760  Biso   1.000  C
  C11      1.0000 0.61780  0.88200  0.61800  Biso   1.000  C
  C12      1.0000 0.90750  0.04290  0.52660  Biso   1.000  C
  C13      1.0000 0.87840  0.61720  0.88610  Biso   1.000  C
  C14      1.0000 0.94830  0.55210  0.94590  Biso   1.000  C
  C15      1.0000 0.90920  0.52640  0.03980  Biso   1.000  C
  C16      1.0000 0.03990  0.52790  0.90760  Biso   1.000  C
  C17      1.0000 0.88200  0.61780  0.61800  Biso   1.000  C
  C18      1.0000 0.04290  0.90750  0.52660  Biso   1.000  C
  C19      1.0000 0.38280  0.12160  0.11390  Biso   1.000  C
  C20      1.0000 0.44790  0.05170  0.05410  Biso   1.000  C
  C21      1.0000 0.47360  0.09080  0.96020  Biso   1.000  C
  C22      1.0000 0.47210  0.96010  0.09240  Biso   1.000  C
  C23      1.0000 0.38220  0.11800  0.38200  Biso   1.000  C
  C24      1.0000 0.09250  0.95710  0.47340  Biso   1.000  C
  C25      1.0000 0.38310  0.38310  0.11400  Biso   1.000  C
  C26      1.0000 0.11690  0.11690  0.38110  Biso   1.000  C
  C27      1.0000 0.05150  0.05150  0.45050  Biso   1.000  C
  C28      1.0000 0.61690  0.61690  0.88600  Biso   1.000  C
  C29      1.0000 0.88310  0.88310  0.61890  Biso   1.000  C
  C30      1.0000 0.94850  0.94850  0.54950  Biso   1.000  C
  O1       1.0000 0.19980  0.36640  0.06970  Biso   1.000  O
  O2       1.0000 0.06940  0.36720  0.19730  Biso   1.000  O
  O3       1.0000 0.19960  0.36660  0.36560  Biso   1.000  O
  O4       1.0000 0.06800  0.36680  0.36570  Biso   1.000  O
  O5       1.0000 0.06830  0.19910  0.36730  Biso   1.000  O
  O6       1.0000 0.63360  0.80020  0.93030  Biso   1.000  O
  O7       1.0000 0.63280  0.93060  0.80270  Biso   1.000  O
  O8       1.0000 0.63340  0.80040  0.63440  Biso   1.000  O
  O9       1.0000 0.63320  0.93200  0.63430  Biso   1.000  O
  O10      1.0000 0.80090  0.93170  0.63270  Biso   1.000  O
  O11      1.0000 0.80020  0.63360  0.93030  Biso   1.000  O
  O12      1.0000 0.93060  0.63280  0.80270  Biso   1.000  O
  O13      1.0000 0.80040  0.63340  0.63440  Biso   1.000  O
  O14      1.0000 0.93200  0.63320  0.63430  Biso   1.000  O
  O15      1.0000 0.93170  0.80090  0.63270  Biso   1.000  O
  O16      1.0000 0.36640  0.19980  0.06970  Biso   1.000  O
  O17      1.0000 0.36720  0.06940  0.19730  Biso   1.000  O
  O18      1.0000 0.36660  0.19960  0.36560  Biso   1.000  O
  O19      1.0000 0.36680  0.06800  0.36570  Biso   1.000  O
  O20      1.0000 0.19910  0.06830  0.36730  Biso   1.000  O
  O21      1.0000 0.24870  0.24870  0.25120  Biso   1.000  O
  O22      1.0000 0.36630  0.36630  0.06820  Biso   1.000  O
  O23      1.0000 0.36620  0.36620  0.19910  Biso   1.000  O
  O24      1.0000 0.75130  0.75130  0.74880  Biso   1.000  O
  O25      1.0000 0.63370  0.63370  0.93180  Biso   1.000  O
  O26      1.0000 0.63380  0.63380  0.80090  Biso   1.000  O
  Zn9      1.0000 0.93540  0.93433  0.06766  Biso   1.000  Zn
  Zn10     1.0000 0.93540  0.11002  0.06766  Biso   1.000  Zn
  Zn11     1.0000 0.75970  0.11002  0.06766  Biso   1.000  Zn
  Zn12     1.0000 0.93539  0.11001  0.89197  Biso   1.000  Zn
  Zn13     1.0000 0.36482  0.51638  0.47408  Biso   1.000  Zn
  Zn14     1.0000 0.36482  0.69208  0.47408  Biso   1.000  Zn
  Zn15     1.0000 0.54052  0.51638  0.47408  Biso   1.000  Zn
  Zn16     1.0000 0.36483  0.51639  0.64976  Biso   1.000  Zn
  H13      1.0000 0.79630  0.74677  0.23099  Biso   1.000  H
  H14      1.0000 0.09873  0.27336  0.92856  Biso   1.000  H
  H15      1.0000 0.57214  0.97093  0.23099  Biso   1.000  H
  H16      1.0000 0.09872  0.27335  0.70442  Biso   1.000  H
  H17      1.0000 0.57213  0.27336  0.92856  Biso   1.000  H
  H18      1.0000 0.09875  0.97093  0.23099  Biso   1.000  H
  H19      1.0000 0.79627  0.27335  0.70442  Biso   1.000  H
  H20      1.0000 0.09875  0.74677  0.23099  Biso   1.000  H
  H21      1.0000 0.09872  0.97090  0.70442  Biso   1.000  H
  H22      1.0000 0.79630  0.27337  0.23099  Biso   1.000  H
  H23      1.0000 0.09873  0.74675  0.92856  Biso   1.000  H
  H24      1.0000 0.57214  0.27337  0.23099  Biso   1.000  H
  H25      1.0000 0.50392  0.35303  0.31075  Biso   1.000  H
  H26      1.0000 0.20149  0.87965  0.61318  Biso   1.000  H
  H27      1.0000 0.72808  0.35303  0.31075  Biso   1.000  H
  H28      1.0000 0.20150  0.65551  0.83732  Biso   1.000  H
  H29      1.0000 0.72809  0.35305  0.61318  Biso   1.000  H
  H30      1.0000 0.20147  0.87964  0.31075  Biso   1.000  H
  H31      1.0000 0.50395  0.35306  0.83732  Biso   1.000  H
  H32      1.0000 0.20147  0.65548  0.31075  Biso   1.000  H
  H33      1.0000 0.20150  0.35306  0.83732  Biso   1.000  H
  H34      1.0000 0.50392  0.87964  0.31075  Biso   1.000  H
  H35      1.0000 0.20149  0.35305  0.61318  Biso   1.000  H
  H36      1.0000 0.72808  0.65548  0.31075  Biso   1.000  H
  C31      1.0000 0.73236  0.77363  0.24953  Biso   1.000  C
  C32      1.0000 0.11727  0.29190  0.86462  Biso   1.000  C
  C33      1.0000 0.59900  0.90699  0.24953  Biso   1.000  C
  C34      1.0000 0.11726  0.29189  0.73127  Biso   1.000  C
  C35      1.0000 0.59898  0.29190  0.86462  Biso   1.000  C
  C36      1.0000 0.11729  0.90699  0.24953  Biso   1.000  C
  C37      1.0000 0.73233  0.29189  0.73127  Biso   1.000  C
  C38      1.0000 0.11729  0.77363  0.24953  Biso   1.000  C
  C39      1.0000 0.11726  0.90696  0.73127  Biso   1.000  C
  C40      1.0000 0.73236  0.29192  0.24953  Biso   1.000  C
  C41      1.0000 0.11727  0.77361  0.86462  Biso   1.000  C
  C42      1.0000 0.59900  0.29192  0.24953  Biso   1.000  C
  C43      1.0000 0.56786  0.33449  0.29221  Biso   1.000  C
  C44      1.0000 0.18295  0.85280  0.67712  Biso   1.000  C
  C45      1.0000 0.70122  0.33449  0.29221  Biso   1.000  C
  C46      1.0000 0.18296  0.71945  0.81047  Biso   1.000  C
  C47      1.0000 0.70124  0.33451  0.67712  Biso   1.000  C
  C48      1.0000 0.18293  0.85278  0.29221  Biso   1.000  C
  C49      1.0000 0.56789  0.33452  0.81047  Biso   1.000  C
  C50      1.0000 0.18293  0.71942  0.29221  Biso   1.000  C
  C51      1.0000 0.18296  0.33452  0.81047  Biso   1.000  C
  C52      1.0000 0.56786  0.85278  0.29221  Biso   1.000  C
  C53      1.0000 0.18295  0.33451  0.67712  Biso   1.000  C
  C54      1.0000 0.70122  0.71942  0.29221  Biso   1.000  C
  C55      1.0000 0.75142  0.92605  0.16379  Biso   1.000  C
  C56      1.0000 0.69295  0.86758  0.22226  Biso   1.000  C
  C57      1.0000 0.03152  0.20615  0.88369  Biso   1.000  C
  C58      1.0000 0.09000  0.26462  0.82522  Biso   1.000  C
  C59      1.0000 0.75141  0.20615  0.88369  Biso   1.000  C
  C60      1.0000 0.69293  0.26462  0.82522  Biso   1.000  C
  C61      1.0000 0.03154  0.92605  0.16379  Biso   1.000  C
  C62      1.0000 0.09002  0.86758  0.22226  Biso   1.000  C
  C63      1.0000 0.03152  0.92604  0.88369  Biso   1.000  C
  C64      1.0000 0.09000  0.86756  0.82522  Biso   1.000  C
  C65      1.0000 0.75142  0.20616  0.16379  Biso   1.000  C
  C66      1.0000 0.69295  0.26464  0.22226  Biso   1.000  C
  C67      1.0000 0.54880  0.42024  0.37795  Biso   1.000  C
  C68      1.0000 0.60727  0.36176  0.31948  Biso   1.000  C
  C69      1.0000 0.26870  0.70037  0.65805  Biso   1.000  C
  C70      1.0000 0.21022  0.75885  0.71652  Biso   1.000  C
  C71      1.0000 0.54881  0.42026  0.65805  Biso   1.000  C
  C72      1.0000 0.60729  0.36178  0.71652  Biso   1.000  C
  C73      1.0000 0.26868  0.70036  0.37795  Biso   1.000  C
  C74      1.0000 0.21020  0.75883  0.31948  Biso   1.000  C
  C75      1.0000 0.26870  0.42026  0.65805  Biso   1.000  C
  C76      1.0000 0.21022  0.36178  0.71652  Biso   1.000  C
  C77      1.0000 0.54880  0.70036  0.37795  Biso   1.000  C
  C78      1.0000 0.60727  0.75883  0.31948  Biso   1.000  C
  O27      1.0000 0.89147  0.06610  0.02374  Biso   1.000  O
  O28      1.0000 0.40875  0.56031  0.51800  Biso   1.000  O
  O29      1.0000 0.83595  0.88640  0.14135  Biso   1.000  O
  O30      1.0000 0.00909  0.18372  0.96821  Biso   1.000  O
  O31      1.0000 0.71177  0.01057  0.14135  Biso   1.000  O
  O32      1.0000 0.00908  0.18371  0.84404  Biso   1.000  O
  O33      1.0000 0.71176  0.18372  0.96821  Biso   1.000  O
  O34      1.0000 0.00910  0.01057  0.14135  Biso   1.000  O
  O35      1.0000 0.83593  0.18371  0.84404  Biso   1.000  O
  O36      1.0000 0.00910  0.88640  0.14135  Biso   1.000  O
  O37      1.0000 0.00908  0.01056  0.84404  Biso   1.000  O
  O38      1.0000 0.83595  0.18373  0.14135  Biso   1.000  O
  O39      1.0000 0.00909  0.88639  0.96821  Biso   1.000  O
  O40      1.0000 0.71177  0.18373  0.14135  Biso   1.000  O
  O41      1.0000 0.46427  0.44268  0.40038  Biso   1.000  O
  O42      1.0000 0.29113  0.74002  0.57353  Biso   1.000  O
  O43      1.0000 0.58845  0.44268  0.40038  Biso   1.000  O
  O44      1.0000 0.29114  0.61585  0.69770  Biso   1.000  O
  O45      1.0000 0.58846  0.44269  0.57353  Biso   1.000  O
  O46      1.0000 0.29112  0.74001  0.40038  Biso   1.000  O
  O47      1.0000 0.46429  0.44269  0.69770  Biso   1.000  O
  O48      1.0000 0.29112  0.61583  0.40038  Biso   1.000  O
  O49      1.0000 0.29114  0.44269  0.69770  Biso   1.000  O
  O50      1.0000 0.46427  0.74001  0.40038  Biso   1.000  O
  O51      1.0000 0.29113  0.44269  0.57353  Biso   1.000  O
