data_image0
_cell_length_a       18.101
_cell_length_b       18.101
_cell_length_c       18.101
_cell_angle_alpha    60.0036
_cell_angle_beta     60.0036
_cell_angle_gamma    60.0001

_symmetry_space_group_name_H-M    "P 1"
_symmetry_int_tables_number       1

loop_
  _symmetry_equiv_pos_as_xyz
  'x, y, z'

loop_
  _atom_site_label
  _atom_site_occupancy
  _atom_site_fract_x
  _atom_site_fract_y
  _atom_site_fract_z
  _atom_site_thermal_displace_type
  _atom_site_B_iso_or_equiv
  _atom_site_type_symbol
  C1       1.0000 0.11865  0.29385  0.29380  Biso   1.000  C
  C2       1.0000 0.70615  0.88135  0.70620  Biso   1.000  C
  C3       1.0000 0.88135  0.70615  0.70620  Biso   1.000  C
  C4       1.0000 0.29385  0.11865  0.29380  Biso   1.000  C
  C5       1.0000 0.29392  0.29392  0.11841  Biso   1.000  C
  C6       1.0000 0.29367  0.29367  0.29393  Biso   1.000  C
  C7       1.0000 0.70608  0.70608  0.88159  Biso   1.000  C
  C8       1.0000 0.70633  0.70633  0.70607  Biso   1.000  C
  C9       1.0000 0.15480  0.45200  0.93360  Biso   1.000  C
  C10      1.0000 0.93280  0.45040  0.15620  Biso   1.000  C
  C11      1.0000 0.93080  0.15620  0.44950  Biso   1.000  C
  C12      1.0000 0.54800  0.84520  0.06640  Biso   1.000  C
  C13      1.0000 0.54960  0.06720  0.84380  Biso   1.000  C
  C14      1.0000 0.84380  0.06920  0.55050  Biso   1.000  C
  C15      1.0000 0.84520  0.54800  0.06640  Biso   1.000  C
  C16      1.0000 0.06720  0.54960  0.84380  Biso   1.000  C
  C17      1.0000 0.06920  0.84380  0.55050  Biso   1.000  C
  C18      1.0000 0.45200  0.15480  0.93360  Biso   1.000  C
  C19      1.0000 0.45040  0.93280  0.15620  Biso   1.000  C
  C20      1.0000 0.15620  0.93080  0.44950  Biso   1.000  C
  C21      1.0000 0.12160  0.38280  0.11390  Biso   1.000  C
  C22      1.0000 0.05170  0.44790  0.05410  Biso   1.000  C
  C23      1.0000 0.09080  0.47360  0.96020  Biso   1.000  C
  C24      1.0000 0.96010  0.47210  0.09240  Biso   1.000  C
  C25      1.0000 0.11800  0.38220  0.38200  Biso   1.000  C
  C26      1.0000 0.95710  0.09250  0.47340  Biso   1.000  C
  C27      1.0000 0.61720  0.87840  0.88610  Biso   1.000  C
  C28      1.0000 0.55210  0.94830  0.94590  Biso   1.000  C
  C29      1.0000 0.52640  0.90920  0.03980  Biso   1.000  C
  C30      1.0000 0.52790  0.03990  0.90760  Biso   1.000  C
  C31      1.0000 0.61780  0.88200  0.61800  Biso   1.000  C
  C32      1.0000 0.90750  0.04290  0.52660  Biso   1.000  C
  C33      1.0000 0.87840  0.61720  0.88610  Biso   1.000  C
  C34      1.0000 0.94830  0.55210  0.94590  Biso   1.000  C
  C35      1.0000 0.90920  0.52640  0.03980  Biso   1.000  C
  C36      1.0000 0.03990  0.52790  0.90760  Biso   1.000  C
  C37      1.0000 0.88200  0.61780  0.61800  Biso   1.000  C
  C38      1.0000 0.04290  0.90750  0.52660  Biso   1.000  C
  C39      1.0000 0.38280  0.12160  0.11390  Biso   1.000  C
  C40      1.0000 0.44790  0.05170  0.05410  Biso   1.000  C
  C41      1.0000 0.47360  0.09080  0.96020  Biso   1.000  C
  C42      1.0000 0.47210  0.96010  0.09240  Biso   1.000  C
  C43      1.0000 0.38220  0.11800  0.38200  Biso   1.000  C
  C44      1.0000 0.09250  0.95710  0.47340  Biso   1.000  C
  C45      1.0000 0.38310  0.38310  0.11400  Biso   1.000  C
  C46      1.0000 0.11690  0.11690  0.38110  Biso   1.000  C
  C47      1.0000 0.05150  0.05150  0.45050  Biso   1.000  C
  C48      1.0000 0.61690  0.61690  0.88600  Biso   1.000  C
  C49      1.0000 0.88310  0.88310  0.61890  Biso   1.000  C
  C50      1.0000 0.94850  0.94850  0.54950  Biso   1.000  C
  C51      1.0000 0.19980  0.36640  0.06970  Biso   1.000  C
  C52      1.0000 0.06940  0.36720  0.19730  Biso   1.000  C
  C53      1.0000 0.19960  0.36660  0.36560  Biso   1.000  C
  C54      1.0000 0.06800  0.36680  0.36570  Biso   1.000  C
  C55      1.0000 0.06830  0.19910  0.36730  Biso   1.000  C
  C56      1.0000 0.63360  0.80020  0.93030  Biso   1.000  C
  C57      1.0000 0.63280  0.93060  0.80270  Biso   1.000  C
  C58      1.0000 0.63340  0.80040  0.63440  Biso   1.000  C
  C59      1.0000 0.63320  0.93200  0.63430  Biso   1.000  C
  C60      1.0000 0.80090  0.93170  0.63270  Biso   1.000  C
  C61      1.0000 0.80020  0.63360  0.93030  Biso   1.000  C
  C62      1.0000 0.93060  0.63280  0.80270  Biso   1.000  C
  C63      1.0000 0.80040  0.63340  0.63440  Biso   1.000  C
  C64      1.0000 0.93200  0.63320  0.63430  Biso   1.000  C
  C65      1.0000 0.93170  0.80090  0.63270  Biso   1.000  C
  C66      1.0000 0.36640  0.19980  0.06970  Biso   1.000  C
  C67      1.0000 0.36720  0.06940  0.19730  Biso   1.000  C
  C68      1.0000 0.36660  0.19960  0.36560  Biso   1.000  C
  C69      1.0000 0.36680  0.06800  0.36570  Biso   1.000  C
  C70      1.0000 0.19910  0.06830  0.36730  Biso   1.000  C
  C71      1.0000 0.24870  0.24870  0.25120  Biso   1.000  C
  C72      1.0000 0.36630  0.36630  0.06820  Biso   1.000  C
  C73      1.0000 0.36620  0.36620  0.19910  Biso   1.000  C
  C74      1.0000 0.75130  0.75130  0.74880  Biso   1.000  C
  C75      1.0000 0.63370  0.63370  0.93180  Biso   1.000  C
  C76      1.0000 0.63380  0.63380  0.80090  Biso   1.000  C
  O1       1.0000 0.16574  0.00000  0.00000  Biso   1.000  O
  O2       1.0000 0.57298  0.59256  0.40758  Biso   1.000  O
  O3       1.0000 0.57298  0.41622  0.40758  Biso   1.000  O
  O4       1.0000 0.16574  0.82366  0.00000  Biso   1.000  O
  O5       1.0000 0.16526  0.00033  0.82345  Biso   1.000  O
  O6       1.0000 0.98900  0.00015  0.00010  Biso   1.000  O
  O7       1.0000 0.57345  0.41589  0.58413  Biso   1.000  O
  O8       1.0000 0.74972  0.41607  0.40748  Biso   1.000  O
  O9       1.0000 0.32185  0.65087  0.85524  Biso   1.000  O
  O10      1.0000 0.32381  0.85912  0.64178  Biso   1.000  O
  O11      1.0000 0.01545  0.65198  0.16148  Biso   1.000  O
  O12      1.0000 0.80447  0.85660  0.16380  Biso   1.000  O
  O13      1.0000 0.32268  0.85862  0.15896  Biso   1.000  O
  O14      1.0000 0.41687  0.25480  0.55234  Biso   1.000  O
  O15      1.0000 0.41491  0.25157  0.76580  Biso   1.000  O
  O16      1.0000 0.72327  0.25570  0.24610  Biso   1.000  O
  O17      1.0000 0.93425  0.25167  0.24378  Biso   1.000  O
  O18      1.0000 0.41603  0.76706  0.24862  Biso   1.000  O
  O19      1.0000 0.41687  0.76535  0.55234  Biso   1.000  O
  O20      1.0000 0.41491  0.55710  0.76580  Biso   1.000  O
  O21      1.0000 0.72327  0.76424  0.24610  Biso   1.000  O
  O22      1.0000 0.93425  0.55962  0.24378  Biso   1.000  O
  O23      1.0000 0.41603  0.55760  0.24862  Biso   1.000  O
  O24      1.0000 0.32185  0.16143  0.85524  Biso   1.000  O
  O25      1.0000 0.32381  0.16465  0.64178  Biso   1.000  O
  O26      1.0000 0.01544  0.16052  0.16148  Biso   1.000  O
  O27      1.0000 0.80447  0.16455  0.16380  Biso   1.000  O
  O28      1.0000 0.32269  0.64916  0.15896  Biso   1.000  O
  O29      1.0000 0.80534  0.16334  0.85736  Biso   1.000  O
  O30      1.0000 0.02100  0.16445  0.63946  Biso   1.000  O
  O31      1.0000 0.93337  0.25288  0.55022  Biso   1.000  O
  O32      1.0000 0.71771  0.25177  0.76812  Biso   1.000  O
  O33      1.0000 0.26080  0.81506  0.81854  Biso   1.000  O
  O34      1.0000 0.32089  0.75648  0.75683  Biso   1.000  O
  O35      1.0000 0.33979  0.67679  0.79252  Biso   1.000  O
  O36      1.0000 0.34337  0.79651  0.66799  Biso   1.000  O
  O37      1.0000 0.97941  0.81829  0.09795  Biso   1.000  O
  O38      1.0000 0.92486  0.75930  0.15371  Biso   1.000  O
  O39      1.0000 0.95273  0.67840  0.17963  Biso   1.000  O
  O40      1.0000 0.83240  0.79409  0.18144  Biso   1.000  O
  O41      1.0000 0.33872  0.79600  0.17922  Biso   1.000  O
  O42      1.0000 0.47791  0.32125  0.58904  Biso   1.000  O
  O43      1.0000 0.41782  0.26105  0.65075  Biso   1.000  O
  O44      1.0000 0.39893  0.23594  0.61506  Biso   1.000  O
  O45      1.0000 0.39534  0.23473  0.73959  Biso   1.000  O
  O46      1.0000 0.75931  0.32246  0.30963  Biso   1.000  O
  O47      1.0000 0.81385  0.26468  0.25387  Biso   1.000  O
  O48      1.0000 0.78599  0.23755  0.22795  Biso   1.000  O
  O49      1.0000 0.90631  0.23473  0.22614  Biso   1.000  O
  O50      1.0000 0.39999  0.74074  0.22836  Biso   1.000  O
  O51      1.0000 0.47791  0.60116  0.58904  Biso   1.000  O
  O52      1.0000 0.41782  0.65975  0.65075  Biso   1.000  O
  O53      1.0000 0.39892  0.73943  0.61506  Biso   1.000  O
  O54      1.0000 0.39534  0.61972  0.73959  Biso   1.000  O
  O55      1.0000 0.75931  0.59793  0.30963  Biso   1.000  O
  O56      1.0000 0.81386  0.65692  0.25387  Biso   1.000  O
  O57      1.0000 0.78598  0.73782  0.22795  Biso   1.000  O
  O58      1.0000 0.90632  0.62213  0.22614  Biso   1.000  O
  O59      1.0000 0.40000  0.62022  0.22836  Biso   1.000  O
  O60      1.0000 0.26080  0.09498  0.81854  Biso   1.000  O
  O61      1.0000 0.32090  0.15517  0.75683  Biso   1.000  O
  O62      1.0000 0.33979  0.18028  0.79252  Biso   1.000  O
  O63      1.0000 0.34337  0.18149  0.66799  Biso   1.000  O
  O64      1.0000 0.97941  0.09377  0.09795  Biso   1.000  O
  O65      1.0000 0.92486  0.15154  0.15371  Biso   1.000  O
  O66      1.0000 0.95273  0.17867  0.17963  Biso   1.000  O
  O67      1.0000 0.83240  0.18149  0.18144  Biso   1.000  O
  O68      1.0000 0.33872  0.67548  0.17922  Biso   1.000  O
  O69      1.0000 0.98613  0.09578  0.81168  Biso   1.000  O
  O70      1.0000 0.92341  0.15346  0.75905  Biso   1.000  O
  O71      1.0000 0.83276  0.18089  0.79484  Biso   1.000  O
  O72      1.0000 0.95839  0.18210  0.66678  Biso   1.000  O
  O73      1.0000 0.25932  0.82010  0.08988  Biso   1.000  O
  O74      1.0000 0.31982  0.75789  0.15381  Biso   1.000  O
  O75      1.0000 0.75258  0.32044  0.59590  Biso   1.000  O
  O76      1.0000 0.81531  0.26276  0.64853  Biso   1.000  O
  O77      1.0000 0.90595  0.23534  0.61274  Biso   1.000  O
  O78      1.0000 0.78033  0.23413  0.74080  Biso   1.000  O
  O79      1.0000 0.47940  0.59612  0.31769  Biso   1.000  O
  O80      1.0000 0.41889  0.65833  0.25377  Biso   1.000  O
  O81      1.0000 0.24053  0.90117  0.77226  Biso   1.000  O
  O82      1.0000 0.24185  0.77079  0.90344  Biso   1.000  O
  O83      1.0000 0.93917  0.90218  0.07123  Biso   1.000  O
  O84      1.0000 0.06642  0.77382  0.07526  Biso   1.000  O
  O85      1.0000 0.24006  0.90319  0.07244  Biso   1.000  O
  O86      1.0000 0.49818  0.34081  0.63532  Biso   1.000  O
  O87      1.0000 0.49686  0.34293  0.50414  Biso   1.000  O
  O88      1.0000 0.79954  0.33940  0.33635  Biso   1.000  O
  O89      1.0000 0.67229  0.34232  0.33232  Biso   1.000  O
  O90      1.0000 0.49866  0.64250  0.33514  Biso   1.000  O
  O91      1.0000 0.49818  0.51505  0.63532  Biso   1.000  O
  O92      1.0000 0.49686  0.64543  0.50414  Biso   1.000  O
  O93      1.0000 0.79954  0.51404  0.33635  Biso   1.000  O
  O94      1.0000 0.67229  0.64240  0.33232  Biso   1.000  O
  O95      1.0000 0.49866  0.51303  0.33514  Biso   1.000  O
  O96      1.0000 0.24053  0.07541  0.77226  Biso   1.000  O
  O97      1.0000 0.24186  0.07330  0.90344  Biso   1.000  O
  O98      1.0000 0.93917  0.07683  0.07123  Biso   1.000  O
  O99      1.0000 0.06642  0.07390  0.07526  Biso   1.000  O
  O100     1.0000 0.24006  0.77372  0.07244  Biso   1.000  O
  O101     1.0000 0.12217  0.95582  0.95557  Biso   1.000  O
  O102     1.0000 0.06760  0.07441  0.77296  Biso   1.000  O
  O103     1.0000 0.94056  0.07672  0.89537  Biso   1.000  O
  O104     1.0000 0.61654  0.46040  0.45201  Biso   1.000  O
  O105     1.0000 0.67111  0.34182  0.63462  Biso   1.000  O
