data_image0
_cell_length_a       18.101
_cell_length_b       18.101
_cell_length_c       18.101
_cell_angle_alpha    60.0036
_cell_angle_beta     60.0036
_cell_angle_gamma    60.0001

_symmetry_space_group_name_H-M    "P 1"
_symmetry_int_tables_number       1

loop_
  _symmetry_equiv_pos_as_xyz
  'x, y, z'

loop_
  _atom_site_label
  _atom_site_occupancy
  _atom_site_fract_x
  _atom_site_fract_y
  _atom_site_fract_z
  _atom_site_thermal_displace_type
  _atom_site_B_iso_or_equiv
  _atom_site_type_symbol
  Zn1      1.0000 0.11865  0.29385  0.29380  Biso   1.000  Zn
  Zn2      1.0000 0.70615  0.88135  0.70620  Biso   1.000  Zn
  Zn3      1.0000 0.88135  0.70615  0.70620  Biso   1.000  Zn
  Zn4      1.0000 0.29385  0.11865  0.29380  Biso   1.000  Zn
  Zn5      1.0000 0.29392  0.29392  0.11841  Biso   1.000  Zn
  Zn6      1.0000 0.29367  0.29367  0.29393  Biso   1.000  Zn
  Zn7      1.0000 0.70608  0.70608  0.88159  Biso   1.000  Zn
  Zn8      1.0000 0.70633  0.70633  0.70607  Biso   1.000  Zn
  H1       1.0000 0.15480  0.45200  0.93360  Biso   1.000  H
  H2       1.0000 0.93280  0.45040  0.15620  Biso   1.000  H
  H3       1.0000 0.93080  0.15620  0.44950  Biso   1.000  H
  H4       1.0000 0.54800  0.84520  0.06640  Biso   1.000  H
  H5       1.0000 0.54960  0.06720  0.84380  Biso   1.000  H
  H6       1.0000 0.84380  0.06920  0.55050  Biso   1.000  H
  H7       1.0000 0.84520  0.54800  0.06640  Biso   1.000  H
  H8       1.0000 0.06720  0.54960  0.84380  Biso   1.000  H
  H9       1.0000 0.06920  0.84380  0.55050  Biso   1.000  H
  H10      1.0000 0.45200  0.15480  0.93360  Biso   1.000  H
  H11      1.0000 0.45040  0.93280  0.15620  Biso   1.000  H
  H12      1.0000 0.15620  0.93080  0.44950  Biso   1.000  H
  C1       1.0000 0.12160  0.38280  0.11390  Biso   1.000  C
  C2       1.0000 0.05170  0.44790  0.05410  Biso   1.000  C
  C3       1.0000 0.09080  0.47360  0.96020  Biso   1.000  C
  C4       1.0000 0.96010  0.47210  0.09240  Biso   1.000  C
  C5       1.0000 0.11800  0.38220  0.38200  Biso   1.000  C
  C6       1.0000 0.95710  0.09250  0.47340  Biso   1.000  C
  C7       1.0000 0.61720  0.87840  0.88610  Biso   1.000  C
  C8       1.0000 0.55210  0.94830  0.94590  Biso   1.000  C
  C9       1.0000 0.52640  0.90920  0.03980  Biso   1.000  C
  C10      1.0000 0.52790  0.03990  0.90760  Biso   1.000  C
  C11      1.0000 0.61780  0.88200  0.61800  Biso   1.000  C
  C12      1.0000 0.90750  0.04290  0.52660  Biso   1.000  C
  C13      1.0000 0.87840  0.61720  0.88610  Biso   1.000  C
  C14      1.0000 0.94830  0.55210  0.94590  Biso   1.000  C
  C15      1.0000 0.90920  0.52640  0.03980  Biso   1.000  C
  C16      1.0000 0.03990  0.52790  0.90760  Biso   1.000  C
  C17      1.0000 0.88200  0.61780  0.61800  Biso   1.000  C
  C18      1.0000 0.04290  0.90750  0.52660  Biso   1.000  C
  C19      1.0000 0.38280  0.12160  0.11390  Biso   1.000  C
  C20      1.0000 0.44790  0.05170  0.05410  Biso   1.000  C
  C21      1.0000 0.47360  0.09080  0.96020  Biso   1.000  C
  C22      1.0000 0.47210  0.96010  0.09240  Biso   1.000  C
  C23      1.0000 0.38220  0.11800  0.38200  Biso   1.000  C
  C24      1.0000 0.09250  0.95710  0.47340  Biso   1.000  C
  C25      1.0000 0.38310  0.38310  0.11400  Biso   1.000  C
  C26      1.0000 0.11690  0.11690  0.38110  Biso   1.000  C
  C27      1.0000 0.05150  0.05150  0.45050  Biso   1.000  C
  C28      1.0000 0.61690  0.61690  0.88600  Biso   1.000  C
  C29      1.0000 0.88310  0.88310  0.61890  Biso   1.000  C
  C30      1.0000 0.94850  0.94850  0.54950  Biso   1.000  C
  O1       1.0000 0.19980  0.36640  0.06970  Biso   1.000  O
  O2       1.0000 0.06940  0.36720  0.19730  Biso   1.000  O
  O3       1.0000 0.19960  0.36660  0.36560  Biso   1.000  O
  O4       1.0000 0.06800  0.36680  0.36570  Biso   1.000  O
  O5       1.0000 0.06830  0.19910  0.36730  Biso   1.000  O
  O6       1.0000 0.63360  0.80020  0.93030  Biso   1.000  O
  O7       1.0000 0.63280  0.93060  0.80270  Biso   1.000  O
  O8       1.0000 0.63340  0.80040  0.63440  Biso   1.000  O
  O9       1.0000 0.63320  0.93200  0.63430  Biso   1.000  O
  O10      1.0000 0.80090  0.93170  0.63270  Biso   1.000  O
  O11      1.0000 0.80020  0.63360  0.93030  Biso   1.000  O
  O12      1.0000 0.93060  0.63280  0.80270  Biso   1.000  O
  O13      1.0000 0.80040  0.63340  0.63440  Biso   1.000  O
  O14      1.0000 0.93200  0.63320  0.63430  Biso   1.000  O
  O15      1.0000 0.93170  0.80090  0.63270  Biso   1.000  O
  O16      1.0000 0.36640  0.19980  0.06970  Biso   1.000  O
  O17      1.0000 0.36720  0.06940  0.19730  Biso   1.000  O
  O18      1.0000 0.36660  0.19960  0.36560  Biso   1.000  O
  O19      1.0000 0.36680  0.06800  0.36570  Biso   1.000  O
  O20      1.0000 0.19910  0.06830  0.36730  Biso   1.000  O
  O21      1.0000 0.24870  0.24870  0.25120  Biso   1.000  O
  O22      1.0000 0.36630  0.36630  0.06820  Biso   1.000  O
  O23      1.0000 0.36620  0.36620  0.19910  Biso   1.000  O
  O24      1.0000 0.75130  0.75130  0.74880  Biso   1.000  O
  O25      1.0000 0.63370  0.63370  0.93180  Biso   1.000  O
  O26      1.0000 0.63380  0.63380  0.80090  Biso   1.000  O
  Zn9      1.0000 0.93540  0.93433  0.06766  Biso   1.000  Zn
  Zn10     1.0000 0.93540  0.11353  0.06766  Biso   1.000  Zn
  Zn11     1.0000 0.75620  0.11353  0.06766  Biso   1.000  Zn
  Zn12     1.0000 0.93539  0.11352  0.88847  Biso   1.000  Zn
  Zn13     1.0000 0.36270  0.51825  0.47244  Biso   1.000  Zn
  Zn14     1.0000 0.36270  0.69745  0.47244  Biso   1.000  Zn
  Zn15     1.0000 0.54190  0.51825  0.47244  Biso   1.000  Zn
  Zn16     1.0000 0.36271  0.51826  0.65163  Biso   1.000  Zn
  H13      1.0000 0.78745  0.75322  0.23219  Biso   1.000  H
  H14      1.0000 0.09993  0.27806  0.91971  Biso   1.000  H
  H15      1.0000 0.57508  0.96559  0.23219  Biso   1.000  H
  H16      1.0000 0.09991  0.27805  0.70735  Biso   1.000  H
  H17      1.0000 0.57506  0.27806  0.91971  Biso   1.000  H
  H18      1.0000 0.09994  0.96559  0.23219  Biso   1.000  H
  H19      1.0000 0.78742  0.27805  0.70735  Biso   1.000  H
  H20      1.0000 0.09994  0.75322  0.23219  Biso   1.000  H
  H21      1.0000 0.09991  0.96556  0.70735  Biso   1.000  H
  H22      1.0000 0.78745  0.27808  0.23219  Biso   1.000  H
  H23      1.0000 0.09992  0.75320  0.91971  Biso   1.000  H
  H24      1.0000 0.57508  0.27808  0.23219  Biso   1.000  H
  H25      1.0000 0.51064  0.35371  0.30792  Biso   1.000  H
  H26      1.0000 0.19817  0.87858  0.62039  Biso   1.000  H
  H27      1.0000 0.72301  0.35371  0.30792  Biso   1.000  H
  H28      1.0000 0.19818  0.66622  0.83275  Biso   1.000  H
  H29      1.0000 0.72303  0.35372  0.62039  Biso   1.000  H
  H30      1.0000 0.19815  0.87857  0.30792  Biso   1.000  H
  H31      1.0000 0.51067  0.35374  0.83275  Biso   1.000  H
  H32      1.0000 0.19815  0.66620  0.30792  Biso   1.000  H
  H33      1.0000 0.19818  0.35374  0.83275  Biso   1.000  H
  H34      1.0000 0.51064  0.87857  0.30792  Biso   1.000  H
  H35      1.0000 0.19817  0.35372  0.62039  Biso   1.000  H
  H36      1.0000 0.72301  0.66620  0.30792  Biso   1.000  H
  C31      1.0000 0.73446  0.77627  0.24715  Biso   1.000  C
  C32      1.0000 0.11489  0.29302  0.86673  Biso   1.000  C
  C33      1.0000 0.59814  0.91260  0.24715  Biso   1.000  C
  C34      1.0000 0.11488  0.29302  0.73041  Biso   1.000  C
  C35      1.0000 0.59812  0.29302  0.86673  Biso   1.000  C
  C36      1.0000 0.11491  0.91260  0.24715  Biso   1.000  C
  C37      1.0000 0.73443  0.29302  0.73041  Biso   1.000  C
  C38      1.0000 0.11491  0.77627  0.24715  Biso   1.000  C
  C39      1.0000 0.11488  0.91257  0.73041  Biso   1.000  C
  C40      1.0000 0.73446  0.29304  0.24715  Biso   1.000  C
  C41      1.0000 0.11489  0.77625  0.86673  Biso   1.000  C
  C42      1.0000 0.59814  0.29304  0.24715  Biso   1.000  C
  C43      1.0000 0.56363  0.33874  0.29295  Biso   1.000  C
  C44      1.0000 0.18321  0.85553  0.67338  Biso   1.000  C
  C45      1.0000 0.69996  0.33874  0.29295  Biso   1.000  C
  C46      1.0000 0.18321  0.71921  0.80969  Biso   1.000  C
  C47      1.0000 0.69998  0.33876  0.67338  Biso   1.000  C
  C48      1.0000 0.18319  0.85551  0.29295  Biso   1.000  C
  C49      1.0000 0.56366  0.33877  0.80969  Biso   1.000  C
  C50      1.0000 0.18319  0.71919  0.29295  Biso   1.000  C
  C51      1.0000 0.18321  0.33877  0.80969  Biso   1.000  C
  C52      1.0000 0.56363  0.85551  0.29295  Biso   1.000  C
  C53      1.0000 0.18321  0.33876  0.67338  Biso   1.000  C
  C54      1.0000 0.69996  0.71919  0.29295  Biso   1.000  C
  C55      1.0000 0.75367  0.93181  0.15978  Biso   1.000  C
  C56      1.0000 0.69249  0.87063  0.22096  Biso   1.000  C
  C57      1.0000 0.02752  0.20565  0.88594  Biso   1.000  C
  C58      1.0000 0.08870  0.26683  0.82476  Biso   1.000  C
  C59      1.0000 0.75366  0.20565  0.88594  Biso   1.000  C
  C60      1.0000 0.69247  0.26683  0.82476  Biso   1.000  C
  C61      1.0000 0.02753  0.93181  0.15978  Biso   1.000  C
  C62      1.0000 0.08872  0.87063  0.22096  Biso   1.000  C
  C63      1.0000 0.02751  0.93179  0.88594  Biso   1.000  C
  C64      1.0000 0.08869  0.87061  0.82476  Biso   1.000  C
  C65      1.0000 0.75367  0.20566  0.15978  Biso   1.000  C
  C66      1.0000 0.69249  0.26685  0.22096  Biso   1.000  C
  C67      1.0000 0.54442  0.42612  0.38032  Biso   1.000  C
  C68      1.0000 0.60560  0.36493  0.31914  Biso   1.000  C
  C69      1.0000 0.27058  0.69999  0.65416  Biso   1.000  C
  C70      1.0000 0.20940  0.76118  0.71534  Biso   1.000  C
  C71      1.0000 0.54444  0.42613  0.65416  Biso   1.000  C
  C72      1.0000 0.60563  0.36495  0.71534  Biso   1.000  C
  C73      1.0000 0.27057  0.69998  0.38032  Biso   1.000  C
  C74      1.0000 0.20938  0.76116  0.31914  Biso   1.000  C
  C75      1.0000 0.27058  0.42613  0.65416  Biso   1.000  C
  C76      1.0000 0.20940  0.36495  0.71534  Biso   1.000  C
  C77      1.0000 0.54442  0.69998  0.38032  Biso   1.000  C
  C78      1.0000 0.60560  0.76116  0.31914  Biso   1.000  C
  O27      1.0000 0.89059  0.06873  0.02286  Biso   1.000  O
  O28      1.0000 0.40750  0.56306  0.51724  Biso   1.000  O
  O29      1.0000 0.83639  0.88751  0.14057  Biso   1.000  O
  O30      1.0000 0.00831  0.18644  0.96866  Biso   1.000  O
  O31      1.0000 0.70938  0.01453  0.14057  Biso   1.000  O
  O32      1.0000 0.00830  0.18643  0.84165  Biso   1.000  O
  O33      1.0000 0.70937  0.18644  0.96866  Biso   1.000  O
  O34      1.0000 0.00831  0.01453  0.14057  Biso   1.000  O
  O35      1.0000 0.83638  0.18643  0.84165  Biso   1.000  O
  O36      1.0000 0.00831  0.88751  0.14057  Biso   1.000  O
  O37      1.0000 0.00830  0.01451  0.84165  Biso   1.000  O
  O38      1.0000 0.83639  0.18645  0.14057  Biso   1.000  O
  O39      1.0000 0.00830  0.88750  0.96866  Biso   1.000  O
  O40      1.0000 0.70938  0.18645  0.14057  Biso   1.000  O
  O41      1.0000 0.46170  0.44533  0.39953  Biso   1.000  O
  O42      1.0000 0.28979  0.74428  0.57144  Biso   1.000  O
  O43      1.0000 0.58872  0.44533  0.39953  Biso   1.000  O
  O44      1.0000 0.28980  0.61727  0.69846  Biso   1.000  O
  O45      1.0000 0.58873  0.44534  0.57144  Biso   1.000  O
  O46      1.0000 0.28978  0.74427  0.39953  Biso   1.000  O
  O47      1.0000 0.46172  0.44535  0.69846  Biso   1.000  O
  O48      1.0000 0.28978  0.61725  0.39953  Biso   1.000  O
  O49      1.0000 0.28980  0.44535  0.69846  Biso   1.000  O
  O50      1.0000 0.46170  0.74427  0.39953  Biso   1.000  O
  O51      1.0000 0.28979  0.44534  0.57144  Biso   1.000  O
