data_image0
_cell_length_a       18.101
_cell_length_b       18.101
_cell_length_c       18.101
_cell_angle_alpha    60.0036
_cell_angle_beta     60.0036
_cell_angle_gamma    60.0001

_symmetry_space_group_name_H-M    "P 1"
_symmetry_int_tables_number       1

loop_
  _symmetry_equiv_pos_as_xyz
  'x, y, z'

loop_
  _atom_site_label
  _atom_site_occupancy
  _atom_site_fract_x
  _atom_site_fract_y
  _atom_site_fract_z
  _atom_site_thermal_displace_type
  _atom_site_B_iso_or_equiv
  _atom_site_type_symbol
  Zn1      1.0000 0.11865  0.29385  0.29380  Biso   1.000  Zn
  Zn2      1.0000 0.70615  0.88135  0.70620  Biso   1.000  Zn
  Zn3      1.0000 0.88135  0.70615  0.70620  Biso   1.000  Zn
  Zn4      1.0000 0.29385  0.11865  0.29380  Biso   1.000  Zn
  Zn5      1.0000 0.29392  0.29392  0.11841  Biso   1.000  Zn
  Zn6      1.0000 0.29367  0.29367  0.29393  Biso   1.000  Zn
  Zn7      1.0000 0.70608  0.70608  0.88159  Biso   1.000  Zn
  Zn8      1.0000 0.70633  0.70633  0.70607  Biso   1.000  Zn
  H1       1.0000 0.15480  0.45200  0.93360  Biso   1.000  H
  H2       1.0000 0.93280  0.45040  0.15620  Biso   1.000  H
  H3       1.0000 0.93080  0.15620  0.44950  Biso   1.000  H
  H4       1.0000 0.54800  0.84520  0.06640  Biso   1.000  H
  H5       1.0000 0.54960  0.06720  0.84380  Biso   1.000  H
  H6       1.0000 0.84380  0.06920  0.55050  Biso   1.000  H
  H7       1.0000 0.84520  0.54800  0.06640  Biso   1.000  H
  H8       1.0000 0.06720  0.54960  0.84380  Biso   1.000  H
  H9       1.0000 0.06920  0.84380  0.55050  Biso   1.000  H
  H10      1.0000 0.45200  0.15480  0.93360  Biso   1.000  H
  H11      1.0000 0.45040  0.93280  0.15620  Biso   1.000  H
  H12      1.0000 0.15620  0.93080  0.44950  Biso   1.000  H
  C1       1.0000 0.12160  0.38280  0.11390  Biso   1.000  C
  C2       1.0000 0.05170  0.44790  0.05410  Biso   1.000  C
  C3       1.0000 0.09080  0.47360  0.96020  Biso   1.000  C
  C4       1.0000 0.96010  0.47210  0.09240  Biso   1.000  C
  C5       1.0000 0.11800  0.38220  0.38200  Biso   1.000  C
  C6       1.0000 0.95710  0.09250  0.47340  Biso   1.000  C
  C7       1.0000 0.61720  0.87840  0.88610  Biso   1.000  C
  C8       1.0000 0.55210  0.94830  0.94590  Biso   1.000  C
  C9       1.0000 0.52640  0.90920  0.03980  Biso   1.000  C
  C10      1.0000 0.52790  0.03990  0.90760  Biso   1.000  C
  C11      1.0000 0.61780  0.88200  0.61800  Biso   1.000  C
  C12      1.0000 0.90750  0.04290  0.52660  Biso   1.000  C
  C13      1.0000 0.87840  0.61720  0.88610  Biso   1.000  C
  C14      1.0000 0.94830  0.55210  0.94590  Biso   1.000  C
  C15      1.0000 0.90920  0.52640  0.03980  Biso   1.000  C
  C16      1.0000 0.03990  0.52790  0.90760  Biso   1.000  C
  C17      1.0000 0.88200  0.61780  0.61800  Biso   1.000  C
  C18      1.0000 0.04290  0.90750  0.52660  Biso   1.000  C
  C19      1.0000 0.38280  0.12160  0.11390  Biso   1.000  C
  C20      1.0000 0.44790  0.05170  0.05410  Biso   1.000  C
  C21      1.0000 0.47360  0.09080  0.96020  Biso   1.000  C
  C22      1.0000 0.47210  0.96010  0.09240  Biso   1.000  C
  C23      1.0000 0.38220  0.11800  0.38200  Biso   1.000  C
  C24      1.0000 0.09250  0.95710  0.47340  Biso   1.000  C
  C25      1.0000 0.38310  0.38310  0.11400  Biso   1.000  C
  C26      1.0000 0.11690  0.11690  0.38110  Biso   1.000  C
  C27      1.0000 0.05150  0.05150  0.45050  Biso   1.000  C
  C28      1.0000 0.61690  0.61690  0.88600  Biso   1.000  C
  C29      1.0000 0.88310  0.88310  0.61890  Biso   1.000  C
  C30      1.0000 0.94850  0.94850  0.54950  Biso   1.000  C
  O1       1.0000 0.19980  0.36640  0.06970  Biso   1.000  O
  O2       1.0000 0.06940  0.36720  0.19730  Biso   1.000  O
  O3       1.0000 0.19960  0.36660  0.36560  Biso   1.000  O
  O4       1.0000 0.06800  0.36680  0.36570  Biso   1.000  O
  O5       1.0000 0.06830  0.19910  0.36730  Biso   1.000  O
  O6       1.0000 0.63360  0.80020  0.93030  Biso   1.000  O
  O7       1.0000 0.63280  0.93060  0.80270  Biso   1.000  O
  O8       1.0000 0.63340  0.80040  0.63440  Biso   1.000  O
  O9       1.0000 0.63320  0.93200  0.63430  Biso   1.000  O
  O10      1.0000 0.80090  0.93170  0.63270  Biso   1.000  O
  O11      1.0000 0.80020  0.63360  0.93030  Biso   1.000  O
  O12      1.0000 0.93060  0.63280  0.80270  Biso   1.000  O
  O13      1.0000 0.80040  0.63340  0.63440  Biso   1.000  O
  O14      1.0000 0.93200  0.63320  0.63430  Biso   1.000  O
  O15      1.0000 0.93170  0.80090  0.63270  Biso   1.000  O
  O16      1.0000 0.36640  0.19980  0.06970  Biso   1.000  O
  O17      1.0000 0.36720  0.06940  0.19730  Biso   1.000  O
  O18      1.0000 0.36660  0.19960  0.36560  Biso   1.000  O
  O19      1.0000 0.36680  0.06800  0.36570  Biso   1.000  O
  O20      1.0000 0.19910  0.06830  0.36730  Biso   1.000  O
  O21      1.0000 0.24870  0.24870  0.25120  Biso   1.000  O
  O22      1.0000 0.36630  0.36630  0.06820  Biso   1.000  O
  O23      1.0000 0.36620  0.36620  0.19910  Biso   1.000  O
  O24      1.0000 0.75130  0.75130  0.74880  Biso   1.000  O
  O25      1.0000 0.63370  0.63370  0.93180  Biso   1.000  O
  O26      1.0000 0.63380  0.63380  0.80090  Biso   1.000  O
  Zn9      1.0000 0.29823  0.56255  0.60892  Biso   1.000  Zn
  Zn10     1.0000 0.47198  0.38879  0.60897  Biso   1.000  Zn
  Zn11     1.0000 0.47203  0.56255  0.60892  Biso   1.000  Zn
  Zn12     1.0000 0.47197  0.56259  0.43517  Biso   1.000  Zn
  Zn13     1.0000 0.05756  0.97708  0.02340  Biso   1.000  Zn
  Zn14     1.0000 0.88381  0.15084  0.02335  Biso   1.000  Zn
  Zn15     1.0000 0.88376  0.97708  0.02340  Biso   1.000  Zn
  Zn16     1.0000 0.88381  0.97704  0.19714  Biso   1.000  Zn
  C31      1.0000 0.13879  0.36112  0.78888  Biso   1.000  C
  C32      1.0000 0.13779  0.74274  0.79089  Biso   1.000  C
  C33      1.0000 0.13897  0.74171  0.40748  Biso   1.000  C
  C34      1.0000 0.26786  0.23207  0.78988  Biso   1.000  C
  C35      1.0000 0.64946  0.23104  0.40728  Biso   1.000  C
  C36      1.0000 0.64847  0.23226  0.79049  Biso   1.000  C
  C37      1.0000 0.65294  0.74251  0.40749  Biso   1.000  C
  C38      1.0000 0.27034  0.74455  0.78909  Biso   1.000  C
  C39      1.0000 0.65357  0.36111  0.78809  Biso   1.000  C
  C40      1.0000 0.65199  0.74356  0.27839  Biso   1.000  C
  C41      1.0000 0.65400  0.36094  0.27738  Biso   1.000  C
  C42      1.0000 0.27057  0.74417  0.27858  Biso   1.000  C
  C43      1.0000 0.21700  0.17851  0.84344  Biso   1.000  C
  C44      1.0000 0.21800  0.79689  0.84143  Biso   1.000  C
  C45      1.0000 0.21682  0.79792  0.22484  Biso   1.000  C
  C46      1.0000 0.08793  0.30756  0.84244  Biso   1.000  C
  C47      1.0000 0.70633  0.30859  0.22504  Biso   1.000  C
  C48      1.0000 0.70732  0.30737  0.84183  Biso   1.000  C
  C49      1.0000 0.70285  0.79712  0.22483  Biso   1.000  C
  C50      1.0000 0.08545  0.79509  0.84323  Biso   1.000  C
  C51      1.0000 0.70222  0.17852  0.84423  Biso   1.000  C
  C52      1.0000 0.70380  0.79607  0.35393  Biso   1.000  C
  C53      1.0000 0.70179  0.17869  0.35494  Biso   1.000  C
  C54      1.0000 0.08522  0.79546  0.35374  Biso   1.000  C
  C55      1.0000 0.23183  0.32240  0.76222  Biso   1.000  C
  C56      1.0000 0.29067  0.38124  0.70338  Biso   1.000  C
  C57      1.0000 0.62528  0.71584  0.36878  Biso   1.000  C
  C58      1.0000 0.56644  0.65701  0.42761  Biso   1.000  C
  C59      1.0000 0.12396  0.21723  0.87010  Biso   1.000  C
  C60      1.0000 0.06512  0.15839  0.92894  Biso   1.000  C
  C61      1.0000 0.73051  0.82379  0.26354  Biso   1.000  C
  C62      1.0000 0.78935  0.88262  0.20470  Biso   1.000  C
  C63      1.0000 0.23162  0.71604  0.36858  Biso   1.000  C
  C64      1.0000 0.29018  0.65749  0.42713  Biso   1.000  C
  C65      1.0000 0.62549  0.32220  0.76242  Biso   1.000  C
  C66      1.0000 0.56693  0.38076  0.70386  Biso   1.000  C
  C67      1.0000 0.12417  0.82359  0.26374  Biso   1.000  C
  C68      1.0000 0.06561  0.88214  0.20519  Biso   1.000  C
  C69      1.0000 0.73030  0.21743  0.86990  Biso   1.000  C
  C70      1.0000 0.78886  0.15887  0.92846  Biso   1.000  C
  C71      1.0000 0.23144  0.71627  0.76262  Biso   1.000  C
  C72      1.0000 0.28999  0.65771  0.70406  Biso   1.000  C
  C73      1.0000 0.62567  0.32198  0.36838  Biso   1.000  C
  C74      1.0000 0.56712  0.38054  0.42693  Biso   1.000  C
  C75      1.0000 0.12435  0.82336  0.86970  Biso   1.000  C
  C76      1.0000 0.06580  0.88193  0.92825  Biso   1.000  C
  C77      1.0000 0.73012  0.21765  0.26394  Biso   1.000  C
  C78      1.0000 0.78867  0.15909  0.20539  Biso   1.000  C
  O27      1.0000 0.24992  0.46570  0.68233  Biso   1.000  O
  O28      1.0000 0.25041  0.63435  0.51123  Biso   1.000  O
  O29      1.0000 0.24956  0.63472  0.68191  Biso   1.000  O
  O30      1.0000 0.37513  0.34049  0.68072  Biso   1.000  O
  O31      1.0000 0.54379  0.34099  0.68267  Biso   1.000  O
  O32      1.0000 0.54414  0.34011  0.51250  Biso   1.000  O
  O33      1.0000 0.54378  0.63595  0.51208  Biso   1.000  O
  O34      1.0000 0.54574  0.46486  0.68072  Biso   1.000  O
  O35      1.0000 0.37556  0.63554  0.68108  Biso   1.000  O
  O36      1.0000 0.54538  0.63434  0.38687  Biso   1.000  O
  O37      1.0000 0.37428  0.63629  0.38737  Biso   1.000  O
  O38      1.0000 0.54496  0.46611  0.38651  Biso   1.000  O
  O39      1.0000 0.10587  0.07393  0.94999  Biso   1.000  O
  O40      1.0000 0.10538  0.90528  0.12108  Biso   1.000  O
  O41      1.0000 0.10623  0.90491  0.95041  Biso   1.000  O
  O42      1.0000 0.98066  0.19914  0.95160  Biso   1.000  O
  O43      1.0000 0.81200  0.19864  0.94965  Biso   1.000  O
  O44      1.0000 0.81165  0.19952  0.11982  Biso   1.000  O
  O45      1.0000 0.81201  0.90368  0.12024  Biso   1.000  O
  O46      1.0000 0.81005  0.07477  0.95160  Biso   1.000  O
  O47      1.0000 0.98023  0.90409  0.95124  Biso   1.000  O
  O48      1.0000 0.81041  0.90529  0.24545  Biso   1.000  O
  O49      1.0000 0.98151  0.90334  0.24495  Biso   1.000  O
  O50      1.0000 0.81083  0.07352  0.24581  Biso   1.000  O
  O51      1.0000 0.42855  0.51912  0.56550  Biso   1.000  O
  O52      1.0000 0.92724  0.02051  0.06682  Biso   1.000  O
  H13      1.0000 0.10552  0.71973  0.76937  Biso   1.000  H
  H14      1.0000 0.34715  0.72302  0.76608  Biso   1.000  H
  H15      1.0000 0.25027  0.81990  0.86295  Biso   1.000  H
  H16      1.0000 0.00864  0.81661  0.86624  Biso   1.000  H
  H17      1.0000 0.63230  0.43790  0.76482  Biso   1.000  H
  H18      1.0000 0.73058  0.33964  0.86309  Biso   1.000  H
  H19      1.0000 0.10671  0.71846  0.48427  Biso   1.000  H
  H20      1.0000 0.00843  0.81673  0.38600  Biso   1.000  H
  H21      1.0000 0.34466  0.19979  0.76803  Biso   1.000  H
  H22      1.0000 0.62645  0.19877  0.48408  Biso   1.000  H
  H23      1.0000 0.72649  0.81792  0.38621  Biso   1.000  H
  H24      1.0000 0.72332  0.10189  0.38721  Biso   1.000  H
  H25      1.0000 0.62521  0.20000  0.76923  Biso   1.000  H
  H26      1.0000 0.72349  0.10173  0.86749  Biso   1.000  H
  H27      1.0000 0.34736  0.72290  0.24631  Biso   1.000  H
  H28      1.0000 0.24908  0.82117  0.14804  Biso   1.000  H
  H29      1.0000 0.72469  0.81980  0.14802  Biso   1.000  H
  H30      1.0000 0.63247  0.43774  0.24511  Biso   1.000  H
  H31      1.0000 0.72934  0.34086  0.14823  Biso   1.000  H
  H32      1.0000 0.62930  0.72171  0.24611  Biso   1.000  H
  H33      1.0000 0.01113  0.33984  0.86429  Biso   1.000  H
  H34      1.0000 0.10652  0.43792  0.76620  Biso   1.000  H
  H35      1.0000 0.24927  0.10171  0.86612  Biso   1.000  H
