data_image0
_cell_length_a       18.101
_cell_length_b       18.101
_cell_length_c       18.101
_cell_angle_alpha    60.0036
_cell_angle_beta     60.0036
_cell_angle_gamma    60.0001

_symmetry_space_group_name_H-M    "P 1"
_symmetry_int_tables_number       1

loop_
  _symmetry_equiv_pos_as_xyz
  'x, y, z'

loop_
  _atom_site_label
  _atom_site_occupancy
  _atom_site_fract_x
  _atom_site_fract_y
  _atom_site_fract_z
  _atom_site_thermal_displace_type
  _atom_site_B_iso_or_equiv
  _atom_site_type_symbol
  C1       1.0000 0.11865  0.29385  0.29380  Biso   1.000  C
  C2       1.0000 0.70615  0.88135  0.70620  Biso   1.000  C
  C3       1.0000 0.88135  0.70615  0.70620  Biso   1.000  C
  C4       1.0000 0.29385  0.11865  0.29380  Biso   1.000  C
  C5       1.0000 0.29392  0.29392  0.11841  Biso   1.000  C
  C6       1.0000 0.29367  0.29367  0.29393  Biso   1.000  C
  C7       1.0000 0.70608  0.70608  0.88159  Biso   1.000  C
  C8       1.0000 0.70633  0.70633  0.70607  Biso   1.000  C
  C9       1.0000 0.15480  0.45200  0.93360  Biso   1.000  C
  C10      1.0000 0.93280  0.45040  0.15620  Biso   1.000  C
  C11      1.0000 0.93080  0.15620  0.44950  Biso   1.000  C
  C12      1.0000 0.54800  0.84520  0.06640  Biso   1.000  C
  C13      1.0000 0.54960  0.06720  0.84380  Biso   1.000  C
  C14      1.0000 0.84380  0.06920  0.55050  Biso   1.000  C
  C15      1.0000 0.84520  0.54800  0.06640  Biso   1.000  C
  C16      1.0000 0.06720  0.54960  0.84380  Biso   1.000  C
  C17      1.0000 0.06920  0.84380  0.55050  Biso   1.000  C
  C18      1.0000 0.45200  0.15480  0.93360  Biso   1.000  C
  C19      1.0000 0.45040  0.93280  0.15620  Biso   1.000  C
  C20      1.0000 0.15620  0.93080  0.44950  Biso   1.000  C
  C21      1.0000 0.12160  0.38280  0.11390  Biso   1.000  C
  C22      1.0000 0.05170  0.44790  0.05410  Biso   1.000  C
  C23      1.0000 0.09080  0.47360  0.96020  Biso   1.000  C
  C24      1.0000 0.96010  0.47210  0.09240  Biso   1.000  C
  C25      1.0000 0.11800  0.38220  0.38200  Biso   1.000  C
  C26      1.0000 0.95710  0.09250  0.47340  Biso   1.000  C
  C27      1.0000 0.61720  0.87840  0.88610  Biso   1.000  C
  C28      1.0000 0.55210  0.94830  0.94590  Biso   1.000  C
  C29      1.0000 0.52640  0.90920  0.03980  Biso   1.000  C
  C30      1.0000 0.52790  0.03990  0.90760  Biso   1.000  C
  C31      1.0000 0.61780  0.88200  0.61800  Biso   1.000  C
  C32      1.0000 0.90750  0.04290  0.52660  Biso   1.000  C
  C33      1.0000 0.87840  0.61720  0.88610  Biso   1.000  C
  C34      1.0000 0.94830  0.55210  0.94590  Biso   1.000  C
  C35      1.0000 0.90920  0.52640  0.03980  Biso   1.000  C
  C36      1.0000 0.03990  0.52790  0.90760  Biso   1.000  C
  C37      1.0000 0.88200  0.61780  0.61800  Biso   1.000  C
  C38      1.0000 0.04290  0.90750  0.52660  Biso   1.000  C
  C39      1.0000 0.38280  0.12160  0.11390  Biso   1.000  C
  C40      1.0000 0.44790  0.05170  0.05410  Biso   1.000  C
  C41      1.0000 0.47360  0.09080  0.96020  Biso   1.000  C
  C42      1.0000 0.47210  0.96010  0.09240  Biso   1.000  C
  C43      1.0000 0.38220  0.11800  0.38200  Biso   1.000  C
  C44      1.0000 0.09250  0.95710  0.47340  Biso   1.000  C
  C45      1.0000 0.38310  0.38310  0.11400  Biso   1.000  C
  C46      1.0000 0.11690  0.11690  0.38110  Biso   1.000  C
  C47      1.0000 0.05150  0.05150  0.45050  Biso   1.000  C
  C48      1.0000 0.61690  0.61690  0.88600  Biso   1.000  C
  C49      1.0000 0.88310  0.88310  0.61890  Biso   1.000  C
  C50      1.0000 0.94850  0.94850  0.54950  Biso   1.000  C
  C51      1.0000 0.19980  0.36640  0.06970  Biso   1.000  C
  C52      1.0000 0.06940  0.36720  0.19730  Biso   1.000  C
  C53      1.0000 0.19960  0.36660  0.36560  Biso   1.000  C
  C54      1.0000 0.06800  0.36680  0.36570  Biso   1.000  C
  C55      1.0000 0.06830  0.19910  0.36730  Biso   1.000  C
  C56      1.0000 0.63360  0.80020  0.93030  Biso   1.000  C
  C57      1.0000 0.63280  0.93060  0.80270  Biso   1.000  C
  C58      1.0000 0.63340  0.80040  0.63440  Biso   1.000  C
  C59      1.0000 0.63320  0.93200  0.63430  Biso   1.000  C
  C60      1.0000 0.80090  0.93170  0.63270  Biso   1.000  C
  C61      1.0000 0.80020  0.63360  0.93030  Biso   1.000  C
  C62      1.0000 0.93060  0.63280  0.80270  Biso   1.000  C
  C63      1.0000 0.80040  0.63340  0.63440  Biso   1.000  C
  C64      1.0000 0.93200  0.63320  0.63430  Biso   1.000  C
  C65      1.0000 0.93170  0.80090  0.63270  Biso   1.000  C
  C66      1.0000 0.36640  0.19980  0.06970  Biso   1.000  C
  C67      1.0000 0.36720  0.06940  0.19730  Biso   1.000  C
  C68      1.0000 0.36660  0.19960  0.36560  Biso   1.000  C
  C69      1.0000 0.36680  0.06800  0.36570  Biso   1.000  C
  C70      1.0000 0.19910  0.06830  0.36730  Biso   1.000  C
  C71      1.0000 0.24870  0.24870  0.25120  Biso   1.000  C
  C72      1.0000 0.36630  0.36630  0.06820  Biso   1.000  C
  C73      1.0000 0.36620  0.36620  0.19910  Biso   1.000  C
  C74      1.0000 0.75130  0.75130  0.74880  Biso   1.000  C
  C75      1.0000 0.63370  0.63370  0.93180  Biso   1.000  C
  C76      1.0000 0.63380  0.63380  0.80090  Biso   1.000  C
  O1       1.0000 0.00000  0.00000  0.00000  Biso   1.000  O
  O2       1.0000 0.82407  0.00001  0.17593  Biso   1.000  O
  O3       1.0000 0.82406  0.17594  0.00000  Biso   1.000  O
  O4       1.0000 0.82406  0.00000  0.00000  Biso   1.000  O
  O5       1.0000 0.25285  0.58236  0.58240  Biso   1.000  O
  O6       1.0000 0.42878  0.58235  0.40648  Biso   1.000  O
  O7       1.0000 0.42879  0.58236  0.58240  Biso   1.000  O
  O8       1.0000 0.42879  0.40642  0.58240  Biso   1.000  O
  O9       1.0000 0.18729  0.83701  0.13873  Biso   1.000  O
  O10      1.0000 0.97394  0.83696  0.35207  Biso   1.000  O
  O11      1.0000 0.67223  0.35203  0.83701  Biso   1.000  O
  O12      1.0000 0.67224  0.13873  0.83701  Biso   1.000  O
  O13      1.0000 0.67221  0.13870  0.35207  Biso   1.000  O
  O14      1.0000 0.67225  0.35204  0.13873  Biso   1.000  O
  O15      1.0000 0.18727  0.83699  0.83701  Biso   1.000  O
  O16      1.0000 0.97397  0.83699  0.83701  Biso   1.000  O
  O17      1.0000 0.97397  0.35203  0.83701  Biso   1.000  O
  O18      1.0000 0.18727  0.13873  0.83701  Biso   1.000  O
  O19      1.0000 0.67221  0.83696  0.35207  Biso   1.000  O
  O20      1.0000 0.67225  0.83701  0.13873  Biso   1.000  O
  O21      1.0000 0.06556  0.74535  0.44368  Biso   1.000  O
  O22      1.0000 0.27891  0.74540  0.23033  Biso   1.000  O
  O23      1.0000 0.58062  0.44363  0.74540  Biso   1.000  O
  O24      1.0000 0.58062  0.23033  0.74540  Biso   1.000  O
  O25      1.0000 0.58064  0.74540  0.23033  Biso   1.000  O
  O26      1.0000 0.58060  0.74535  0.44368  Biso   1.000  O
  O27      1.0000 0.06558  0.44363  0.74540  Biso   1.000  O
  O28      1.0000 0.27888  0.23033  0.74540  Biso   1.000  O
  O29      1.0000 0.27888  0.74537  0.74540  Biso   1.000  O
  O30      1.0000 0.06558  0.74537  0.74540  Biso   1.000  O
  O31      1.0000 0.58064  0.44366  0.23033  Biso   1.000  O
  O32      1.0000 0.58060  0.23032  0.44368  Biso   1.000  O
  O33      1.0000 0.15982  0.81795  0.20432  Biso   1.000  O
  O34      1.0000 0.03954  0.81790  0.32460  Biso   1.000  O
  O35      1.0000 0.65317  0.32455  0.81795  Biso   1.000  O
  O36      1.0000 0.65317  0.20432  0.81795  Biso   1.000  O
  O37      1.0000 0.65315  0.20429  0.32460  Biso   1.000  O
  O38      1.0000 0.65319  0.32457  0.20432  Biso   1.000  O
  O39      1.0000 0.15980  0.81793  0.81795  Biso   1.000  O
  O40      1.0000 0.03957  0.81793  0.81795  Biso   1.000  O
  O41      1.0000 0.03956  0.32455  0.81795  Biso   1.000  O
  O42      1.0000 0.15980  0.20432  0.81795  Biso   1.000  O
  O43      1.0000 0.65315  0.81790  0.32460  Biso   1.000  O
  O44      1.0000 0.65319  0.81795  0.20432  Biso   1.000  O
  O45      1.0000 0.09303  0.76441  0.37809  Biso   1.000  O
  O46      1.0000 0.21331  0.76446  0.25781  Biso   1.000  O
  O47      1.0000 0.59968  0.37804  0.76446  Biso   1.000  O
  O48      1.0000 0.59968  0.25781  0.76446  Biso   1.000  O
  O49      1.0000 0.59971  0.76446  0.25781  Biso   1.000  O
  O50      1.0000 0.59966  0.76441  0.37809  Biso   1.000  O
  O51      1.0000 0.09305  0.37804  0.76446  Biso   1.000  O
  O52      1.0000 0.21329  0.25781  0.76446  Biso   1.000  O
  O53      1.0000 0.21329  0.76443  0.76446  Biso   1.000  O
  O54      1.0000 0.09305  0.76443  0.76446  Biso   1.000  O
  O55      1.0000 0.59970  0.37807  0.25781  Biso   1.000  O
  O56      1.0000 0.59966  0.25779  0.37809  Biso   1.000  O
  O57      1.0000 0.00791  0.90415  0.18382  Biso   1.000  O
  O58      1.0000 0.06649  0.84558  0.24240  Biso   1.000  O
  O59      1.0000 0.72820  0.18383  0.90415  Biso   1.000  O
  O60      1.0000 0.66962  0.24240  0.84557  Biso   1.000  O
  O61      1.0000 0.72821  0.18384  0.18382  Biso   1.000  O
  O62      1.0000 0.66964  0.24242  0.24240  Biso   1.000  O
  O63      1.0000 0.00789  0.90413  0.90415  Biso   1.000  O
  O64      1.0000 0.06647  0.84555  0.84557  Biso   1.000  O
  O65      1.0000 0.00789  0.18383  0.90415  Biso   1.000  O
  O66      1.0000 0.06647  0.24240  0.84557  Biso   1.000  O
  O67      1.0000 0.72821  0.90415  0.18382  Biso   1.000  O
  O68      1.0000 0.66964  0.84558  0.24240  Biso   1.000  O
  O69      1.0000 0.24494  0.67821  0.39858  Biso   1.000  O
  O70      1.0000 0.18636  0.73678  0.34001  Biso   1.000  O
  O71      1.0000 0.52465  0.39853  0.67826  Biso   1.000  O
  O72      1.0000 0.58323  0.33996  0.73683  Biso   1.000  O
  O73      1.0000 0.52464  0.67821  0.39858  Biso   1.000  O
  O74      1.0000 0.58321  0.73678  0.34001  Biso   1.000  O
  O75      1.0000 0.24496  0.39853  0.67826  Biso   1.000  O
  O76      1.0000 0.18638  0.33996  0.73683  Biso   1.000  O
  O77      1.0000 0.24496  0.67822  0.67826  Biso   1.000  O
  O78      1.0000 0.18638  0.73681  0.73683  Biso   1.000  O
  O79      1.0000 0.52464  0.39852  0.39858  Biso   1.000  O
  O80      1.0000 0.58321  0.33994  0.34001  Biso   1.000  O
  O81      1.0000 0.04757  0.92656  0.09932  Biso   1.000  O
  O82      1.0000 0.92340  0.92657  0.22349  Biso   1.000  O
  O83      1.0000 0.75062  0.22350  0.92656  Biso   1.000  O
  O84      1.0000 0.75062  0.09932  0.92656  Biso   1.000  O
  O85      1.0000 0.75063  0.09934  0.22349  Biso   1.000  O
  O86      1.0000 0.75063  0.22351  0.09932  Biso   1.000  O
  O87      1.0000 0.04756  0.92655  0.92656  Biso   1.000  O
  O88      1.0000 0.92339  0.92655  0.92656  Biso   1.000  O
  O89      1.0000 0.92339  0.22350  0.92656  Biso   1.000  O
  O90      1.0000 0.04756  0.09932  0.92656  Biso   1.000  O
  O91      1.0000 0.75063  0.92657  0.22349  Biso   1.000  O
  O92      1.0000 0.75063  0.92656  0.09932  Biso   1.000  O
  O93      1.0000 0.20528  0.65580  0.48308  Biso   1.000  O
  O94      1.0000 0.32945  0.65579  0.35892  Biso   1.000  O
  O95      1.0000 0.50223  0.48304  0.65584  Biso   1.000  O
  O96      1.0000 0.50223  0.35886  0.65584  Biso   1.000  O
  O97      1.0000 0.50222  0.65579  0.35892  Biso   1.000  O
  O98      1.0000 0.50222  0.65580  0.48308  Biso   1.000  O
  O99      1.0000 0.20529  0.48304  0.65584  Biso   1.000  O
  O100     1.0000 0.32946  0.35886  0.65584  Biso   1.000  O
  O101     1.0000 0.32946  0.65581  0.65584  Biso   1.000  O
  O102     1.0000 0.20529  0.65581  0.65584  Biso   1.000  O
  O103     1.0000 0.50222  0.48302  0.35892  Biso   1.000  O
  O104     1.0000 0.50222  0.35885  0.48308  Biso   1.000  O
  O105     1.0000 0.86805  0.04399  0.04398  Biso   1.000  O
