data_image0
_cell_length_a       18.101
_cell_length_b       18.101
_cell_length_c       18.101
_cell_angle_alpha    60.0036
_cell_angle_beta     60.0036
_cell_angle_gamma    60.0001

_symmetry_space_group_name_H-M    "P 1"
_symmetry_int_tables_number       1

loop_
  _symmetry_equiv_pos_as_xyz
  'x, y, z'

loop_
  _atom_site_label
  _atom_site_occupancy
  _atom_site_fract_x
  _atom_site_fract_y
  _atom_site_fract_z
  _atom_site_thermal_displace_type
  _atom_site_B_iso_or_equiv
  _atom_site_type_symbol
  Zn1      1.0000 0.11865  0.29385  0.29380  Biso   1.000  Zn
  Zn2      1.0000 0.70615  0.88135  0.70620  Biso   1.000  Zn
  Zn3      1.0000 0.88135  0.70615  0.70620  Biso   1.000  Zn
  Zn4      1.0000 0.29385  0.11865  0.29380  Biso   1.000  Zn
  Zn5      1.0000 0.29392  0.29392  0.11841  Biso   1.000  Zn
  Zn6      1.0000 0.29367  0.29367  0.29393  Biso   1.000  Zn
  Zn7      1.0000 0.70608  0.70608  0.88159  Biso   1.000  Zn
  Zn8      1.0000 0.70633  0.70633  0.70607  Biso   1.000  Zn
  H1       1.0000 0.15480  0.45200  0.93360  Biso   1.000  H
  H2       1.0000 0.93280  0.45040  0.15620  Biso   1.000  H
  H3       1.0000 0.93080  0.15620  0.44950  Biso   1.000  H
  H4       1.0000 0.54800  0.84520  0.06640  Biso   1.000  H
  H5       1.0000 0.54960  0.06720  0.84380  Biso   1.000  H
  H6       1.0000 0.84380  0.06920  0.55050  Biso   1.000  H
  H7       1.0000 0.84520  0.54800  0.06640  Biso   1.000  H
  H8       1.0000 0.06720  0.54960  0.84380  Biso   1.000  H
  H9       1.0000 0.06920  0.84380  0.55050  Biso   1.000  H
  H10      1.0000 0.45200  0.15480  0.93360  Biso   1.000  H
  H11      1.0000 0.45040  0.93280  0.15620  Biso   1.000  H
  H12      1.0000 0.15620  0.93080  0.44950  Biso   1.000  H
  C1       1.0000 0.12160  0.38280  0.11390  Biso   1.000  C
  C2       1.0000 0.05170  0.44790  0.05410  Biso   1.000  C
  C3       1.0000 0.09080  0.47360  0.96020  Biso   1.000  C
  C4       1.0000 0.96010  0.47210  0.09240  Biso   1.000  C
  C5       1.0000 0.11800  0.38220  0.38200  Biso   1.000  C
  C6       1.0000 0.95710  0.09250  0.47340  Biso   1.000  C
  C7       1.0000 0.61720  0.87840  0.88610  Biso   1.000  C
  C8       1.0000 0.55210  0.94830  0.94590  Biso   1.000  C
  C9       1.0000 0.52640  0.90920  0.03980  Biso   1.000  C
  C10      1.0000 0.52790  0.03990  0.90760  Biso   1.000  C
  C11      1.0000 0.61780  0.88200  0.61800  Biso   1.000  C
  C12      1.0000 0.90750  0.04290  0.52660  Biso   1.000  C
  C13      1.0000 0.87840  0.61720  0.88610  Biso   1.000  C
  C14      1.0000 0.94830  0.55210  0.94590  Biso   1.000  C
  C15      1.0000 0.90920  0.52640  0.03980  Biso   1.000  C
  C16      1.0000 0.03990  0.52790  0.90760  Biso   1.000  C
  C17      1.0000 0.88200  0.61780  0.61800  Biso   1.000  C
  C18      1.0000 0.04290  0.90750  0.52660  Biso   1.000  C
  C19      1.0000 0.38280  0.12160  0.11390  Biso   1.000  C
  C20      1.0000 0.44790  0.05170  0.05410  Biso   1.000  C
  C21      1.0000 0.47360  0.09080  0.96020  Biso   1.000  C
  C22      1.0000 0.47210  0.96010  0.09240  Biso   1.000  C
  C23      1.0000 0.38220  0.11800  0.38200  Biso   1.000  C
  C24      1.0000 0.09250  0.95710  0.47340  Biso   1.000  C
  C25      1.0000 0.38310  0.38310  0.11400  Biso   1.000  C
  C26      1.0000 0.11690  0.11690  0.38110  Biso   1.000  C
  C27      1.0000 0.05150  0.05150  0.45050  Biso   1.000  C
  C28      1.0000 0.61690  0.61690  0.88600  Biso   1.000  C
  C29      1.0000 0.88310  0.88310  0.61890  Biso   1.000  C
  C30      1.0000 0.94850  0.94850  0.54950  Biso   1.000  C
  O1       1.0000 0.19980  0.36640  0.06970  Biso   1.000  O
  O2       1.0000 0.06940  0.36720  0.19730  Biso   1.000  O
  O3       1.0000 0.19960  0.36660  0.36560  Biso   1.000  O
  O4       1.0000 0.06800  0.36680  0.36570  Biso   1.000  O
  O5       1.0000 0.06830  0.19910  0.36730  Biso   1.000  O
  O6       1.0000 0.63360  0.80020  0.93030  Biso   1.000  O
  O7       1.0000 0.63280  0.93060  0.80270  Biso   1.000  O
  O8       1.0000 0.63340  0.80040  0.63440  Biso   1.000  O
  O9       1.0000 0.63320  0.93200  0.63430  Biso   1.000  O
  O10      1.0000 0.80090  0.93170  0.63270  Biso   1.000  O
  O11      1.0000 0.80020  0.63360  0.93030  Biso   1.000  O
  O12      1.0000 0.93060  0.63280  0.80270  Biso   1.000  O
  O13      1.0000 0.80040  0.63340  0.63440  Biso   1.000  O
  O14      1.0000 0.93200  0.63320  0.63430  Biso   1.000  O
  O15      1.0000 0.93170  0.80090  0.63270  Biso   1.000  O
  O16      1.0000 0.36640  0.19980  0.06970  Biso   1.000  O
  O17      1.0000 0.36720  0.06940  0.19730  Biso   1.000  O
  O18      1.0000 0.36660  0.19960  0.36560  Biso   1.000  O
  O19      1.0000 0.36680  0.06800  0.36570  Biso   1.000  O
  O20      1.0000 0.19910  0.06830  0.36730  Biso   1.000  O
  O21      1.0000 0.24870  0.24870  0.25120  Biso   1.000  O
  O22      1.0000 0.36630  0.36630  0.06820  Biso   1.000  O
  O23      1.0000 0.36620  0.36620  0.19910  Biso   1.000  O
  O24      1.0000 0.75130  0.75130  0.74880  Biso   1.000  O
  O25      1.0000 0.63370  0.63370  0.93180  Biso   1.000  O
  O26      1.0000 0.63380  0.63380  0.80090  Biso   1.000  O
  Zn9      1.0000 0.48185  0.34863  0.67658  Biso   1.000  Zn
  Zn10     1.0000 0.65745  0.34862  0.50098  Biso   1.000  Zn
  Zn11     1.0000 0.48184  0.34862  0.50098  Biso   1.000  Zn
  Zn12     1.0000 0.48185  0.52422  0.50098  Biso   1.000  Zn
  Zn13     1.0000 0.08581  0.93098  0.90781  Biso   1.000  Zn
  Zn14     1.0000 0.91021  0.93099  0.08340  Biso   1.000  Zn
  Zn15     1.0000 0.08582  0.75539  0.08340  Biso   1.000  Zn
  Zn16     1.0000 0.08582  0.93099  0.08340  Biso   1.000  Zn
  H13      1.0000 0.63274  0.18506  0.85272  Biso   1.000  H
  H14      1.0000 0.84436  0.18511  0.64110  Biso   1.000  H
  H15      1.0000 0.32912  0.48873  0.33748  Biso   1.000  H
  H16      1.0000 0.32912  0.70031  0.33748  Biso   1.000  H
  H17      1.0000 0.32913  0.70033  0.64110  Biso   1.000  H
  H18      1.0000 0.32909  0.48871  0.85272  Biso   1.000  H
  H19      1.0000 0.63276  0.18509  0.33748  Biso   1.000  H
  H20      1.0000 0.84434  0.18509  0.33748  Biso   1.000  H
  H21      1.0000 0.84434  0.48873  0.33748  Biso   1.000  H
  H22      1.0000 0.63276  0.70031  0.33748  Biso   1.000  H
  H23      1.0000 0.32914  0.18511  0.64110  Biso   1.000  H
  H24      1.0000 0.32909  0.18506  0.85272  Biso   1.000  H
  H25      1.0000 0.93493  0.09454  0.73167  Biso   1.000  H
  H26      1.0000 0.72331  0.09450  0.94328  Biso   1.000  H
  H27      1.0000 0.23855  0.57930  0.24691  Biso   1.000  H
  H28      1.0000 0.23855  0.79087  0.24691  Biso   1.000  H
  H29      1.0000 0.23853  0.09450  0.94328  Biso   1.000  H
  H30      1.0000 0.23857  0.09454  0.73167  Biso   1.000  H
  H31      1.0000 0.93490  0.57930  0.24691  Biso   1.000  H
  H32      1.0000 0.72333  0.79087  0.24691  Biso   1.000  H
  H33      1.0000 0.72333  0.09452  0.24691  Biso   1.000  H
  H34      1.0000 0.93490  0.09452  0.24691  Biso   1.000  H
  H35      1.0000 0.23853  0.57928  0.94328  Biso   1.000  H
  H36      1.0000 0.23857  0.79090  0.73167  Biso   1.000  H
  C31      1.0000 0.69675  0.16668  0.82548  Biso   1.000  C
  C32      1.0000 0.81712  0.16672  0.70511  Biso   1.000  C
  C33      1.0000 0.31073  0.55275  0.31909  Biso   1.000  C
  C34      1.0000 0.31073  0.67307  0.31909  Biso   1.000  C
  C35      1.0000 0.31075  0.67309  0.70511  Biso   1.000  C
  C36      1.0000 0.31071  0.55272  0.82548  Biso   1.000  C
  C37      1.0000 0.69678  0.16670  0.31909  Biso   1.000  C
  C38      1.0000 0.81710  0.16670  0.31909  Biso   1.000  C
  C39      1.0000 0.81710  0.55275  0.31909  Biso   1.000  C
  C40      1.0000 0.69678  0.67307  0.31909  Biso   1.000  C
  C41      1.0000 0.31075  0.16672  0.70511  Biso   1.000  C
  C42      1.0000 0.31070  0.16668  0.82548  Biso   1.000  C
  C43      1.0000 0.87092  0.11293  0.75891  Biso   1.000  C
  C44      1.0000 0.75055  0.11288  0.87927  Biso   1.000  C
  C45      1.0000 0.25693  0.60654  0.26530  Biso   1.000  C
  C46      1.0000 0.25693  0.72686  0.26530  Biso   1.000  C
  C47      1.0000 0.25691  0.11288  0.87927  Biso   1.000  C
  C48      1.0000 0.25696  0.11293  0.75891  Biso   1.000  C
  C49      1.0000 0.87089  0.60654  0.26530  Biso   1.000  C
  C50      1.0000 0.75057  0.72686  0.26530  Biso   1.000  C
  C51      1.0000 0.75057  0.11291  0.26530  Biso   1.000  C
  C52      1.0000 0.87089  0.11291  0.26530  Biso   1.000  C
  C53      1.0000 0.25691  0.60652  0.87927  Biso   1.000  C
  C54      1.0000 0.25696  0.72689  0.75891  Biso   1.000  C
  C55      1.0000 0.66565  0.25263  0.68477  Biso   1.000  C
  C56      1.0000 0.72425  0.19404  0.74336  Biso   1.000  C
  C57      1.0000 0.38584  0.53240  0.40499  Biso   1.000  C
  C58      1.0000 0.32724  0.59100  0.34640  Biso   1.000  C
  C59      1.0000 0.38586  0.53242  0.68477  Biso   1.000  C
  C60      1.0000 0.32727  0.59102  0.74336  Biso   1.000  C
  C61      1.0000 0.66563  0.25262  0.40499  Biso   1.000  C
  C62      1.0000 0.72423  0.19402  0.34640  Biso   1.000  C
  C63      1.0000 0.66563  0.53240  0.40499  Biso   1.000  C
  C64      1.0000 0.72423  0.59100  0.34640  Biso   1.000  C
  C65      1.0000 0.38586  0.25263  0.68477  Biso   1.000  C
  C66      1.0000 0.32727  0.19404  0.74336  Biso   1.000  C
  C67      1.0000 0.90202  0.02698  0.89962  Biso   1.000  C
  C68      1.0000 0.84342  0.08557  0.84103  Biso   1.000  C
  C69      1.0000 0.18182  0.74720  0.17939  Biso   1.000  C
  C70      1.0000 0.24042  0.68861  0.23799  Biso   1.000  C
  C71      1.0000 0.18181  0.02698  0.89962  Biso   1.000  C
  C72      1.0000 0.24040  0.08557  0.84103  Biso   1.000  C
  C73      1.0000 0.90203  0.74720  0.17939  Biso   1.000  C
  C74      1.0000 0.84344  0.68861  0.23799  Biso   1.000  C
  C75      1.0000 0.90203  0.02699  0.17939  Biso   1.000  C
  C76      1.0000 0.84344  0.08559  0.23799  Biso   1.000  C
  C77      1.0000 0.18181  0.74719  0.89962  Biso   1.000  C
  C78      1.0000 0.24040  0.68859  0.84103  Biso   1.000  C
  O27      1.0000 0.52575  0.39252  0.54488  Biso   1.000  O
  O28      1.0000 0.04192  0.88709  0.03951  Biso   1.000  O
  O29      1.0000 0.58142  0.27514  0.72397  Biso   1.000  O
  O30      1.0000 0.70485  0.27514  0.60054  Biso   1.000  O
  O31      1.0000 0.40836  0.44818  0.42750  Biso   1.000  O
  O32      1.0000 0.40836  0.57161  0.42750  Biso   1.000  O
  O33      1.0000 0.40837  0.57162  0.60054  Biso   1.000  O
  O34      1.0000 0.40837  0.44819  0.72397  Biso   1.000  O
  O35      1.0000 0.58140  0.27513  0.42750  Biso   1.000  O
  O36      1.0000 0.70484  0.27513  0.42750  Biso   1.000  O
  O37      1.0000 0.70484  0.44818  0.42750  Biso   1.000  O
  O38      1.0000 0.58141  0.57161  0.42750  Biso   1.000  O
  O39      1.0000 0.40836  0.27514  0.60054  Biso   1.000  O
  O40      1.0000 0.40837  0.27514  0.72397  Biso   1.000  O
  O41      1.0000 0.98624  0.00447  0.86041  Biso   1.000  O
  O42      1.0000 0.86281  0.00447  0.98385  Biso   1.000  O
  O43      1.0000 0.15931  0.70799  0.15689  Biso   1.000  O
  O44      1.0000 0.15931  0.83143  0.15689  Biso   1.000  O
  O45      1.0000 0.15930  0.00447  0.98385  Biso   1.000  O
  O46      1.0000 0.15929  0.00447  0.86041  Biso   1.000  O
  O47      1.0000 0.98626  0.70799  0.15689  Biso   1.000  O
  O48      1.0000 0.86282  0.83143  0.15689  Biso   1.000  O
  O49      1.0000 0.86282  0.00448  0.15689  Biso   1.000  O
  O50      1.0000 0.98626  0.00448  0.15689  Biso   1.000  O
  O51      1.0000 0.15930  0.70798  0.98385  Biso   1.000  O
