data_image0
_cell_length_a       18.101
_cell_length_b       18.101
_cell_length_c       18.101
_cell_angle_alpha    60.0036
_cell_angle_beta     60.0036
_cell_angle_gamma    60.0001

_symmetry_space_group_name_H-M    "P 1"
_symmetry_int_tables_number       1

loop_
  _symmetry_equiv_pos_as_xyz
  'x, y, z'

loop_
  _atom_site_label
  _atom_site_occupancy
  _atom_site_fract_x
  _atom_site_fract_y
  _atom_site_fract_z
  _atom_site_thermal_displace_type
  _atom_site_B_iso_or_equiv
  _atom_site_type_symbol
  C1       1.0000 0.11865  0.29385  0.29380  Biso   1.000  C
  C2       1.0000 0.70615  0.88135  0.70620  Biso   1.000  C
  C3       1.0000 0.88135  0.70615  0.70620  Biso   1.000  C
  C4       1.0000 0.29385  0.11865  0.29380  Biso   1.000  C
  C5       1.0000 0.29392  0.29392  0.11841  Biso   1.000  C
  C6       1.0000 0.29367  0.29367  0.29393  Biso   1.000  C
  C7       1.0000 0.70608  0.70608  0.88159  Biso   1.000  C
  C8       1.0000 0.70633  0.70633  0.70607  Biso   1.000  C
  C9       1.0000 0.15480  0.45200  0.93360  Biso   1.000  C
  C10      1.0000 0.93280  0.45040  0.15620  Biso   1.000  C
  C11      1.0000 0.93080  0.15620  0.44950  Biso   1.000  C
  C12      1.0000 0.54800  0.84520  0.06640  Biso   1.000  C
  C13      1.0000 0.54960  0.06720  0.84380  Biso   1.000  C
  C14      1.0000 0.84380  0.06920  0.55050  Biso   1.000  C
  C15      1.0000 0.84520  0.54800  0.06640  Biso   1.000  C
  C16      1.0000 0.06720  0.54960  0.84380  Biso   1.000  C
  C17      1.0000 0.06920  0.84380  0.55050  Biso   1.000  C
  C18      1.0000 0.45200  0.15480  0.93360  Biso   1.000  C
  C19      1.0000 0.45040  0.93280  0.15620  Biso   1.000  C
  C20      1.0000 0.15620  0.93080  0.44950  Biso   1.000  C
  C21      1.0000 0.12160  0.38280  0.11390  Biso   1.000  C
  C22      1.0000 0.05170  0.44790  0.05410  Biso   1.000  C
  C23      1.0000 0.09080  0.47360  0.96020  Biso   1.000  C
  C24      1.0000 0.96010  0.47210  0.09240  Biso   1.000  C
  C25      1.0000 0.11800  0.38220  0.38200  Biso   1.000  C
  C26      1.0000 0.95710  0.09250  0.47340  Biso   1.000  C
  C27      1.0000 0.61720  0.87840  0.88610  Biso   1.000  C
  C28      1.0000 0.55210  0.94830  0.94590  Biso   1.000  C
  C29      1.0000 0.52640  0.90920  0.03980  Biso   1.000  C
  C30      1.0000 0.52790  0.03990  0.90760  Biso   1.000  C
  C31      1.0000 0.61780  0.88200  0.61800  Biso   1.000  C
  C32      1.0000 0.90750  0.04290  0.52660  Biso   1.000  C
  C33      1.0000 0.87840  0.61720  0.88610  Biso   1.000  C
  C34      1.0000 0.94830  0.55210  0.94590  Biso   1.000  C
  C35      1.0000 0.90920  0.52640  0.03980  Biso   1.000  C
  C36      1.0000 0.03990  0.52790  0.90760  Biso   1.000  C
  C37      1.0000 0.88200  0.61780  0.61800  Biso   1.000  C
  C38      1.0000 0.04290  0.90750  0.52660  Biso   1.000  C
  C39      1.0000 0.38280  0.12160  0.11390  Biso   1.000  C
  C40      1.0000 0.44790  0.05170  0.05410  Biso   1.000  C
  C41      1.0000 0.47360  0.09080  0.96020  Biso   1.000  C
  C42      1.0000 0.47210  0.96010  0.09240  Biso   1.000  C
  C43      1.0000 0.38220  0.11800  0.38200  Biso   1.000  C
  C44      1.0000 0.09250  0.95710  0.47340  Biso   1.000  C
  C45      1.0000 0.38310  0.38310  0.11400  Biso   1.000  C
  C46      1.0000 0.11690  0.11690  0.38110  Biso   1.000  C
  C47      1.0000 0.05150  0.05150  0.45050  Biso   1.000  C
  C48      1.0000 0.61690  0.61690  0.88600  Biso   1.000  C
  C49      1.0000 0.88310  0.88310  0.61890  Biso   1.000  C
  C50      1.0000 0.94850  0.94850  0.54950  Biso   1.000  C
  C51      1.0000 0.19980  0.36640  0.06970  Biso   1.000  C
  C52      1.0000 0.06940  0.36720  0.19730  Biso   1.000  C
  C53      1.0000 0.19960  0.36660  0.36560  Biso   1.000  C
  C54      1.0000 0.06800  0.36680  0.36570  Biso   1.000  C
  C55      1.0000 0.06830  0.19910  0.36730  Biso   1.000  C
  C56      1.0000 0.63360  0.80020  0.93030  Biso   1.000  C
  C57      1.0000 0.63280  0.93060  0.80270  Biso   1.000  C
  C58      1.0000 0.63340  0.80040  0.63440  Biso   1.000  C
  C59      1.0000 0.63320  0.93200  0.63430  Biso   1.000  C
  C60      1.0000 0.80090  0.93170  0.63270  Biso   1.000  C
  C61      1.0000 0.80020  0.63360  0.93030  Biso   1.000  C
  C62      1.0000 0.93060  0.63280  0.80270  Biso   1.000  C
  C63      1.0000 0.80040  0.63340  0.63440  Biso   1.000  C
  C64      1.0000 0.93200  0.63320  0.63430  Biso   1.000  C
  C65      1.0000 0.93170  0.80090  0.63270  Biso   1.000  C
  C66      1.0000 0.36640  0.19980  0.06970  Biso   1.000  C
  C67      1.0000 0.36720  0.06940  0.19730  Biso   1.000  C
  C68      1.0000 0.36660  0.19960  0.36560  Biso   1.000  C
  C69      1.0000 0.36680  0.06800  0.36570  Biso   1.000  C
  C70      1.0000 0.19910  0.06830  0.36730  Biso   1.000  C
  C71      1.0000 0.24870  0.24870  0.25120  Biso   1.000  C
  C72      1.0000 0.36630  0.36630  0.06820  Biso   1.000  C
  C73      1.0000 0.36620  0.36620  0.19910  Biso   1.000  C
  C74      1.0000 0.75130  0.75130  0.74880  Biso   1.000  C
  C75      1.0000 0.63370  0.63370  0.93180  Biso   1.000  C
  C76      1.0000 0.63380  0.63380  0.80090  Biso   1.000  C
  O1       1.0000 0.00000  0.00000  0.00000  Biso   1.000  O
  O2       1.0000 0.82538  0.17462  0.00000  Biso   1.000  O
  O3       1.0000 0.82539  0.00001  0.17461  Biso   1.000  O
  O4       1.0000 0.82538  0.00000  0.00000  Biso   1.000  O
  O5       1.0000 0.41117  0.41117  0.58573  Biso   1.000  O
  O6       1.0000 0.23656  0.58579  0.58573  Biso   1.000  O
  O7       1.0000 0.41117  0.58578  0.41112  Biso   1.000  O
  O8       1.0000 0.41117  0.58579  0.58573  Biso   1.000  O
  O9       1.0000 0.14975  0.21072  0.81976  Biso   1.000  O
  O10      1.0000 0.03611  0.32437  0.81976  Biso   1.000  O
  O11      1.0000 0.64515  0.81977  0.32436  Biso   1.000  O
  O12      1.0000 0.64514  0.81976  0.21072  Biso   1.000  O
  O13      1.0000 0.14975  0.81974  0.81976  Biso   1.000  O
  O14      1.0000 0.03611  0.81974  0.81976  Biso   1.000  O
  O15      1.0000 0.64515  0.32439  0.21072  Biso   1.000  O
  O16      1.0000 0.64515  0.21075  0.32436  Biso   1.000  O
  O17      1.0000 0.14978  0.81976  0.21072  Biso   1.000  O
  O18      1.0000 0.03614  0.81977  0.32436  Biso   1.000  O
  O19      1.0000 0.64512  0.21072  0.81976  Biso   1.000  O
  O20      1.0000 0.64512  0.32437  0.81976  Biso   1.000  O
  O21      1.0000 0.20045  0.26142  0.76597  Biso   1.000  O
  O22      1.0000 0.08680  0.37506  0.76597  Biso   1.000  O
  O23      1.0000 0.59141  0.76602  0.26136  Biso   1.000  O
  O24      1.0000 0.59141  0.76603  0.37500  Biso   1.000  O
  O25      1.0000 0.59143  0.26142  0.76597  Biso   1.000  O
  O26      1.0000 0.59143  0.37506  0.76597  Biso   1.000  O
  O27      1.0000 0.08678  0.76603  0.37500  Biso   1.000  O
  O28      1.0000 0.20042  0.76602  0.26136  Biso   1.000  O
  O29      1.0000 0.59141  0.26140  0.37500  Biso   1.000  O
  O30      1.0000 0.59141  0.37504  0.26136  Biso   1.000  O
  O31      1.0000 0.20045  0.76605  0.76597  Biso   1.000  O
  O32      1.0000 0.08680  0.76605  0.76597  Biso   1.000  O
  O33      1.0000 0.06402  0.23864  0.84867  Biso   1.000  O
  O34      1.0000 0.00830  0.18292  0.90439  Biso   1.000  O
  O35      1.0000 0.67406  0.84867  0.23864  Biso   1.000  O
  O36      1.0000 0.72978  0.90440  0.18291  Biso   1.000  O
  O37      1.0000 0.06402  0.84865  0.84867  Biso   1.000  O
  O38      1.0000 0.00830  0.90438  0.90439  Biso   1.000  O
  O39      1.0000 0.67406  0.23866  0.23864  Biso   1.000  O
  O40      1.0000 0.72978  0.18293  0.18291  Biso   1.000  O
  O41      1.0000 0.06404  0.84867  0.23864  Biso   1.000  O
  O42      1.0000 0.00831  0.90440  0.18291  Biso   1.000  O
  O43      1.0000 0.67404  0.23864  0.84867  Biso   1.000  O
  O44      1.0000 0.72977  0.18292  0.90439  Biso   1.000  O
  O45      1.0000 0.17253  0.34715  0.73706  Biso   1.000  O
  O46      1.0000 0.22826  0.40287  0.68133  Biso   1.000  O
  O47      1.0000 0.56250  0.73712  0.34709  Biso   1.000  O
  O48      1.0000 0.50678  0.68139  0.40282  Biso   1.000  O
  O49      1.0000 0.56252  0.34715  0.73706  Biso   1.000  O
  O50      1.0000 0.50679  0.40287  0.68133  Biso   1.000  O
  O51      1.0000 0.17251  0.73712  0.34709  Biso   1.000  O
  O52      1.0000 0.22824  0.68139  0.40282  Biso   1.000  O
  O53      1.0000 0.56250  0.34713  0.34709  Biso   1.000  O
  O54      1.0000 0.50678  0.40286  0.40282  Biso   1.000  O
  O55      1.0000 0.17254  0.73714  0.73706  Biso   1.000  O
  O56      1.0000 0.22826  0.68141  0.68133  Biso   1.000  O
  O57      1.0000 0.86904  0.04366  0.04365  Biso   1.000  O
  O58      1.0000 0.36752  0.54213  0.54208  Biso   1.000  O
  O59      1.0000 0.04399  0.09938  0.92832  Biso   1.000  O
  O60      1.0000 0.92476  0.21861  0.92832  Biso   1.000  O
  O61      1.0000 0.75371  0.92832  0.21860  Biso   1.000  O
  O62      1.0000 0.75370  0.92832  0.09938  Biso   1.000  O
  O63      1.0000 0.04399  0.92831  0.92832  Biso   1.000  O
  O64      1.0000 0.92476  0.92831  0.92832  Biso   1.000  O
  O65      1.0000 0.75370  0.21862  0.09938  Biso   1.000  O
  O66      1.0000 0.75371  0.09939  0.21860  Biso   1.000  O
  O67      1.0000 0.04400  0.92832  0.09938  Biso   1.000  O
  O68      1.0000 0.92478  0.92832  0.21860  Biso   1.000  O
  O69      1.0000 0.75369  0.09938  0.92832  Biso   1.000  O
  O70      1.0000 0.75369  0.21861  0.92832  Biso   1.000  O
  O71      1.0000 0.31180  0.36718  0.65741  Biso   1.000  O
  O72      1.0000 0.19257  0.48641  0.65741  Biso   1.000  O
  O73      1.0000 0.48285  0.65747  0.36713  Biso   1.000  O
  O74      1.0000 0.48286  0.65747  0.48635  Biso   1.000  O
  O75      1.0000 0.48287  0.36718  0.65741  Biso   1.000  O
  O76      1.0000 0.48287  0.48641  0.65741  Biso   1.000  O
  O77      1.0000 0.19256  0.65747  0.48635  Biso   1.000  O
  O78      1.0000 0.31178  0.65747  0.36713  Biso   1.000  O
  O79      1.0000 0.48286  0.36717  0.48635  Biso   1.000  O
  O80      1.0000 0.48285  0.48640  0.36713  Biso   1.000  O
  O81      1.0000 0.31180  0.65748  0.65741  Biso   1.000  O
  O82      1.0000 0.19257  0.65748  0.65741  Biso   1.000  O
  O83      1.0000 0.18204  0.13392  0.84203  Biso   1.000  O
  O84      1.0000 0.95930  0.35665  0.84203  Biso   1.000  O
  O85      1.0000 0.66742  0.84204  0.35664  Biso   1.000  O
  O86      1.0000 0.66741  0.84203  0.13392  Biso   1.000  O
  O87      1.0000 0.95930  0.84201  0.84203  Biso   1.000  O
  O88      1.0000 0.66741  0.35667  0.13392  Biso   1.000  O
  O89      1.0000 0.66742  0.13394  0.35664  Biso   1.000  O
  O90      1.0000 0.18205  0.84203  0.13392  Biso   1.000  O
  O91      1.0000 0.95933  0.84204  0.35664  Biso   1.000  O
  O92      1.0000 0.66740  0.13392  0.84203  Biso   1.000  O
  O93      1.0000 0.66740  0.35665  0.84203  Biso   1.000  O
  O94      1.0000 0.27726  0.22914  0.74370  Biso   1.000  O
  O95      1.0000 0.05452  0.45187  0.74370  Biso   1.000  O
  O96      1.0000 0.56913  0.74375  0.22909  Biso   1.000  O
  O97      1.0000 0.56915  0.74376  0.45181  Biso   1.000  O
  O98      1.0000 0.56916  0.22914  0.74370  Biso   1.000  O
  O99      1.0000 0.56916  0.45187  0.74370  Biso   1.000  O
  O100     1.0000 0.05451  0.74376  0.45181  Biso   1.000  O
  O101     1.0000 0.27723  0.74375  0.22909  Biso   1.000  O
  O102     1.0000 0.56913  0.45185  0.22909  Biso   1.000  O
  O103     1.0000 0.27726  0.74378  0.74370  Biso   1.000  O
  O104     1.0000 0.05452  0.74378  0.74370  Biso   1.000  O
  O105     1.0000 0.56915  0.22912  0.45181  Biso   1.000  O
