data_image0
_cell_length_a       18.101
_cell_length_b       18.101
_cell_length_c       18.101
_cell_angle_alpha    60.0036
_cell_angle_beta     60.0036
_cell_angle_gamma    60.0001

_symmetry_space_group_name_H-M    "P 1"
_symmetry_int_tables_number       1

loop_
  _symmetry_equiv_pos_as_xyz
  'x, y, z'

loop_
  _atom_site_label
  _atom_site_occupancy
  _atom_site_fract_x
  _atom_site_fract_y
  _atom_site_fract_z
  _atom_site_thermal_displace_type
  _atom_site_B_iso_or_equiv
  _atom_site_type_symbol
  Zn1      1.0000 0.11865  0.29385  0.29380  Biso   1.000  Zn
  Zn2      1.0000 0.70615  0.88135  0.70620  Biso   1.000  Zn
  Zn3      1.0000 0.88135  0.70615  0.70620  Biso   1.000  Zn
  Zn4      1.0000 0.29385  0.11865  0.29380  Biso   1.000  Zn
  Zn5      1.0000 0.29392  0.29392  0.11841  Biso   1.000  Zn
  Zn6      1.0000 0.29367  0.29367  0.29393  Biso   1.000  Zn
  Zn7      1.0000 0.70608  0.70608  0.88159  Biso   1.000  Zn
  Zn8      1.0000 0.70633  0.70633  0.70607  Biso   1.000  Zn
  H1       1.0000 0.15480  0.45200  0.93360  Biso   1.000  H
  H2       1.0000 0.93280  0.45040  0.15620  Biso   1.000  H
  H3       1.0000 0.93080  0.15620  0.44950  Biso   1.000  H
  H4       1.0000 0.54800  0.84520  0.06640  Biso   1.000  H
  H5       1.0000 0.54960  0.06720  0.84380  Biso   1.000  H
  H6       1.0000 0.84380  0.06920  0.55050  Biso   1.000  H
  H7       1.0000 0.84520  0.54800  0.06640  Biso   1.000  H
  H8       1.0000 0.06720  0.54960  0.84380  Biso   1.000  H
  H9       1.0000 0.06920  0.84380  0.55050  Biso   1.000  H
  H10      1.0000 0.45200  0.15480  0.93360  Biso   1.000  H
  H11      1.0000 0.45040  0.93280  0.15620  Biso   1.000  H
  H12      1.0000 0.15620  0.93080  0.44950  Biso   1.000  H
  C1       1.0000 0.12160  0.38280  0.11390  Biso   1.000  C
  C2       1.0000 0.05170  0.44790  0.05410  Biso   1.000  C
  C3       1.0000 0.09080  0.47360  0.96020  Biso   1.000  C
  C4       1.0000 0.96010  0.47210  0.09240  Biso   1.000  C
  C5       1.0000 0.11800  0.38220  0.38200  Biso   1.000  C
  C6       1.0000 0.95710  0.09250  0.47340  Biso   1.000  C
  C7       1.0000 0.61720  0.87840  0.88610  Biso   1.000  C
  C8       1.0000 0.55210  0.94830  0.94590  Biso   1.000  C
  C9       1.0000 0.52640  0.90920  0.03980  Biso   1.000  C
  C10      1.0000 0.52790  0.03990  0.90760  Biso   1.000  C
  C11      1.0000 0.61780  0.88200  0.61800  Biso   1.000  C
  C12      1.0000 0.90750  0.04290  0.52660  Biso   1.000  C
  C13      1.0000 0.87840  0.61720  0.88610  Biso   1.000  C
  C14      1.0000 0.94830  0.55210  0.94590  Biso   1.000  C
  C15      1.0000 0.90920  0.52640  0.03980  Biso   1.000  C
  C16      1.0000 0.03990  0.52790  0.90760  Biso   1.000  C
  C17      1.0000 0.88200  0.61780  0.61800  Biso   1.000  C
  C18      1.0000 0.04290  0.90750  0.52660  Biso   1.000  C
  C19      1.0000 0.38280  0.12160  0.11390  Biso   1.000  C
  C20      1.0000 0.44790  0.05170  0.05410  Biso   1.000  C
  C21      1.0000 0.47360  0.09080  0.96020  Biso   1.000  C
  C22      1.0000 0.47210  0.96010  0.09240  Biso   1.000  C
  C23      1.0000 0.38220  0.11800  0.38200  Biso   1.000  C
  C24      1.0000 0.09250  0.95710  0.47340  Biso   1.000  C
  C25      1.0000 0.38310  0.38310  0.11400  Biso   1.000  C
  C26      1.0000 0.11690  0.11690  0.38110  Biso   1.000  C
  C27      1.0000 0.05150  0.05150  0.45050  Biso   1.000  C
  C28      1.0000 0.61690  0.61690  0.88600  Biso   1.000  C
  C29      1.0000 0.88310  0.88310  0.61890  Biso   1.000  C
  C30      1.0000 0.94850  0.94850  0.54950  Biso   1.000  C
  O1       1.0000 0.19980  0.36640  0.06970  Biso   1.000  O
  O2       1.0000 0.06940  0.36720  0.19730  Biso   1.000  O
  O3       1.0000 0.19960  0.36660  0.36560  Biso   1.000  O
  O4       1.0000 0.06800  0.36680  0.36570  Biso   1.000  O
  O5       1.0000 0.06830  0.19910  0.36730  Biso   1.000  O
  O6       1.0000 0.63360  0.80020  0.93030  Biso   1.000  O
  O7       1.0000 0.63280  0.93060  0.80270  Biso   1.000  O
  O8       1.0000 0.63340  0.80040  0.63440  Biso   1.000  O
  O9       1.0000 0.63320  0.93200  0.63430  Biso   1.000  O
  O10      1.0000 0.80090  0.93170  0.63270  Biso   1.000  O
  O11      1.0000 0.80020  0.63360  0.93030  Biso   1.000  O
  O12      1.0000 0.93060  0.63280  0.80270  Biso   1.000  O
  O13      1.0000 0.80040  0.63340  0.63440  Biso   1.000  O
  O14      1.0000 0.93200  0.63320  0.63430  Biso   1.000  O
  O15      1.0000 0.93170  0.80090  0.63270  Biso   1.000  O
  O16      1.0000 0.36640  0.19980  0.06970  Biso   1.000  O
  O17      1.0000 0.36720  0.06940  0.19730  Biso   1.000  O
  O18      1.0000 0.36660  0.19960  0.36560  Biso   1.000  O
  O19      1.0000 0.36680  0.06800  0.36570  Biso   1.000  O
  O20      1.0000 0.19910  0.06830  0.36730  Biso   1.000  O
  O21      1.0000 0.24870  0.24870  0.25120  Biso   1.000  O
  O22      1.0000 0.36630  0.36630  0.06820  Biso   1.000  O
  O23      1.0000 0.36620  0.36620  0.19910  Biso   1.000  O
  O24      1.0000 0.75130  0.75130  0.74880  Biso   1.000  O
  O25      1.0000 0.63370  0.63370  0.93180  Biso   1.000  O
  O26      1.0000 0.63380  0.63380  0.80090  Biso   1.000  O
  Zn9      1.0000 0.00000  0.00000  0.00000  Biso   1.000  Zn
  Zn10     1.0000 0.82778  0.99996  0.17222  Biso   1.000  Zn
  Zn11     1.0000 0.82782  0.17218  1.00000  Biso   1.000  Zn
  Zn12     1.0000 0.82782  1.00000  1.00000  Biso   1.000  Zn
  Zn13     1.0000 0.41525  0.58605  0.41259  Biso   1.000  Zn
  Zn14     1.0000 0.24174  0.58606  0.58610  Biso   1.000  Zn
  Zn15     1.0000 0.41526  0.58606  0.58610  Biso   1.000  Zn
  Zn16     1.0000 0.41526  0.41254  0.58610  Biso   1.000  Zn
  H13      1.0000 0.27082  0.75064  0.22781  Biso   1.000  H
  H14      1.0000 0.05694  0.75066  0.44169  Biso   1.000  H
  H15      1.0000 0.57987  0.44165  0.75070  Biso   1.000  H
  H16      1.0000 0.57987  0.22775  0.75070  Biso   1.000  H
  H17      1.0000 0.57986  0.22774  0.44169  Biso   1.000  H
  H18      1.0000 0.57985  0.44162  0.22781  Biso   1.000  H
  H19      1.0000 0.27085  0.75067  0.75070  Biso   1.000  H
  H20      1.0000 0.05695  0.75067  0.75070  Biso   1.000  H
  H21      1.0000 0.05695  0.44165  0.75070  Biso   1.000  H
  H22      1.0000 0.27085  0.22775  0.75070  Biso   1.000  H
  H23      1.0000 0.57986  0.75066  0.44169  Biso   1.000  H
  H24      1.0000 0.57985  0.75064  0.22781  Biso   1.000  H
  C31      1.0000 0.15997  0.81804  0.20387  Biso   1.000  C
  C32      1.0000 0.20844  0.76737  0.25674  Biso   1.000  C
  C33      1.0000 0.03300  0.81804  0.33084  Biso   1.000  C
  C34      1.0000 0.08587  0.76738  0.37931  Biso   1.000  C
  C35      1.0000 0.64727  0.33080  0.81809  Biso   1.000  C
  C36      1.0000 0.59660  0.37926  0.76742  Biso   1.000  C
  C37      1.0000 0.64727  0.20382  0.81809  Biso   1.000  C
  C38      1.0000 0.59660  0.25669  0.76742  Biso   1.000  C
  C39      1.0000 0.64724  0.20380  0.33084  Biso   1.000  C
  C40      1.0000 0.59658  0.25667  0.37931  Biso   1.000  C
  C41      1.0000 0.64724  0.33076  0.20387  Biso   1.000  C
  C42      1.0000 0.59657  0.37923  0.25674  Biso   1.000  C
  C43      1.0000 0.16000  0.81807  0.81809  Biso   1.000  C
  C44      1.0000 0.20846  0.76740  0.76742  Biso   1.000  C
  C45      1.0000 0.03302  0.81807  0.81809  Biso   1.000  C
  C46      1.0000 0.08589  0.76740  0.76742  Biso   1.000  C
  C47      1.0000 0.03302  0.33080  0.81809  Biso   1.000  C
  C48      1.0000 0.08589  0.37926  0.76742  Biso   1.000  C
  C49      1.0000 0.16000  0.20382  0.81809  Biso   1.000  C
  C50      1.0000 0.20846  0.25669  0.76742  Biso   1.000  C
  C51      1.0000 0.64725  0.81804  0.33084  Biso   1.000  C
  C52      1.0000 0.59658  0.76738  0.37931  Biso   1.000  C
  C53      1.0000 0.64724  0.81804  0.20387  Biso   1.000  C
  C54      1.0000 0.59657  0.76737  0.25674  Biso   1.000  C
  C55      1.0000 0.00786  0.90666  0.17874  Biso   1.000  C
  C56      1.0000 0.07195  0.84257  0.24283  Biso   1.000  C
  C57      1.0000 0.23007  0.68446  0.40094  Biso   1.000  C
  C58      1.0000 0.17950  0.73503  0.35037  Biso   1.000  C
  C59      1.0000 0.73590  0.17869  0.90671  Biso   1.000  C
  C60      1.0000 0.67181  0.24278  0.84262  Biso   1.000  C
  C61      1.0000 0.51368  0.40089  0.68451  Biso   1.000  C
  C62      1.0000 0.56425  0.35032  0.73508  Biso   1.000  C
  C63      1.0000 0.73586  0.17865  0.17874  Biso   1.000  C
  C64      1.0000 0.67177  0.24275  0.24283  Biso   1.000  C
  C65      1.0000 0.51366  0.40087  0.40094  Biso   1.000  C
  C66      1.0000 0.56423  0.35030  0.35037  Biso   1.000  C
  C67      1.0000 0.00789  0.90670  0.90671  Biso   1.000  C
  C68      1.0000 0.07198  0.84260  0.84262  Biso   1.000  C
  C69      1.0000 0.23009  0.68448  0.68451  Biso   1.000  C
  C70      1.0000 0.17952  0.73505  0.73508  Biso   1.000  C
  C71      1.0000 0.00789  0.17869  0.90671  Biso   1.000  C
  C72      1.0000 0.07198  0.24278  0.84262  Biso   1.000  C
  C73      1.0000 0.23009  0.40089  0.68451  Biso   1.000  C
  C74      1.0000 0.17952  0.35032  0.73508  Biso   1.000  C
  C75      1.0000 0.73586  0.90666  0.17874  Biso   1.000  C
  C76      1.0000 0.67177  0.84257  0.24283  Biso   1.000  C
  C77      1.0000 0.51366  0.68446  0.40094  Biso   1.000  C
  C78      1.0000 0.56423  0.73503  0.35037  Biso   1.000  C
  O27      1.0000 0.37188  0.54268  0.54272  Biso   1.000  O
  O28      1.0000 0.86983  0.04339  0.04339  Biso   1.000  O
  O29      1.0000 0.04670  0.92868  0.09583  Biso   1.000  O
  O30      1.0000 0.31549  0.65953  0.36539  Biso   1.000  O
  O31      1.0000 0.92494  0.92869  0.21759  Biso   1.000  O
  O32      1.0000 0.19453  0.65953  0.48635  Biso   1.000  O
  O33      1.0000 0.75793  0.21755  0.92874  Biso   1.000  O
  O34      1.0000 0.48874  0.48630  0.65958  Biso   1.000  O
  O35      1.0000 0.75793  0.09578  0.92874  Biso   1.000  O
  O36      1.0000 0.48874  0.36534  0.65958  Biso   1.000  O
  O37      1.0000 0.75789  0.09574  0.21759  Biso   1.000  O
  O38      1.0000 0.48873  0.36533  0.48635  Biso   1.000  O
  O39      1.0000 0.75788  0.21750  0.09583  Biso   1.000  O
  O40      1.0000 0.48873  0.48629  0.36539  Biso   1.000  O
  O41      1.0000 0.04675  0.92873  0.92874  Biso   1.000  O
  O42      1.0000 0.31551  0.65954  0.65958  Biso   1.000  O
  O43      1.0000 0.92498  0.92873  0.92874  Biso   1.000  O
  O44      1.0000 0.19454  0.65954  0.65958  Biso   1.000  O
  O45      1.0000 0.92498  0.21755  0.92874  Biso   1.000  O
  O46      1.0000 0.19454  0.48630  0.65958  Biso   1.000  O
  O47      1.0000 0.04675  0.09578  0.92874  Biso   1.000  O
  O48      1.0000 0.31550  0.36534  0.65958  Biso   1.000  O
  O49      1.0000 0.75789  0.92869  0.21759  Biso   1.000  O
  O50      1.0000 0.48873  0.65953  0.48635  Biso   1.000  O
  O51      1.0000 0.75789  0.92868  0.09583  Biso   1.000  O
