data_image0
_cell_length_a       18.101
_cell_length_b       18.101
_cell_length_c       18.101
_cell_angle_alpha    60.0036
_cell_angle_beta     60.0036
_cell_angle_gamma    60.0001

_symmetry_space_group_name_H-M    "P 1"
_symmetry_int_tables_number       1

loop_
  _symmetry_equiv_pos_as_xyz
  'x, y, z'

loop_
  _atom_site_label
  _atom_site_occupancy
  _atom_site_fract_x
  _atom_site_fract_y
  _atom_site_fract_z
  _atom_site_thermal_displace_type
  _atom_site_B_iso_or_equiv
  _atom_site_type_symbol
  C1       1.0000 0.11865  0.29385  0.29380  Biso   1.000  C
  C2       1.0000 0.70615  0.88135  0.70620  Biso   1.000  C
  C3       1.0000 0.88135  0.70615  0.70620  Biso   1.000  C
  C4       1.0000 0.29385  0.11865  0.29380  Biso   1.000  C
  C5       1.0000 0.29392  0.29392  0.11841  Biso   1.000  C
  C6       1.0000 0.29367  0.29367  0.29393  Biso   1.000  C
  C7       1.0000 0.70608  0.70608  0.88159  Biso   1.000  C
  C8       1.0000 0.70633  0.70633  0.70607  Biso   1.000  C
  C9       1.0000 0.15480  0.45200  0.93360  Biso   1.000  C
  C10      1.0000 0.93280  0.45040  0.15620  Biso   1.000  C
  C11      1.0000 0.93080  0.15620  0.44950  Biso   1.000  C
  C12      1.0000 0.54800  0.84520  0.06640  Biso   1.000  C
  C13      1.0000 0.54960  0.06720  0.84380  Biso   1.000  C
  C14      1.0000 0.84380  0.06920  0.55050  Biso   1.000  C
  C15      1.0000 0.84520  0.54800  0.06640  Biso   1.000  C
  C16      1.0000 0.06720  0.54960  0.84380  Biso   1.000  C
  C17      1.0000 0.06920  0.84380  0.55050  Biso   1.000  C
  C18      1.0000 0.45200  0.15480  0.93360  Biso   1.000  C
  C19      1.0000 0.45040  0.93280  0.15620  Biso   1.000  C
  C20      1.0000 0.15620  0.93080  0.44950  Biso   1.000  C
  C21      1.0000 0.12160  0.38280  0.11390  Biso   1.000  C
  C22      1.0000 0.05170  0.44790  0.05410  Biso   1.000  C
  C23      1.0000 0.09080  0.47360  0.96020  Biso   1.000  C
  C24      1.0000 0.96010  0.47210  0.09240  Biso   1.000  C
  C25      1.0000 0.11800  0.38220  0.38200  Biso   1.000  C
  C26      1.0000 0.95710  0.09250  0.47340  Biso   1.000  C
  C27      1.0000 0.61720  0.87840  0.88610  Biso   1.000  C
  C28      1.0000 0.55210  0.94830  0.94590  Biso   1.000  C
  C29      1.0000 0.52640  0.90920  0.03980  Biso   1.000  C
  C30      1.0000 0.52790  0.03990  0.90760  Biso   1.000  C
  C31      1.0000 0.61780  0.88200  0.61800  Biso   1.000  C
  C32      1.0000 0.90750  0.04290  0.52660  Biso   1.000  C
  C33      1.0000 0.87840  0.61720  0.88610  Biso   1.000  C
  C34      1.0000 0.94830  0.55210  0.94590  Biso   1.000  C
  C35      1.0000 0.90920  0.52640  0.03980  Biso   1.000  C
  C36      1.0000 0.03990  0.52790  0.90760  Biso   1.000  C
  C37      1.0000 0.88200  0.61780  0.61800  Biso   1.000  C
  C38      1.0000 0.04290  0.90750  0.52660  Biso   1.000  C
  C39      1.0000 0.38280  0.12160  0.11390  Biso   1.000  C
  C40      1.0000 0.44790  0.05170  0.05410  Biso   1.000  C
  C41      1.0000 0.47360  0.09080  0.96020  Biso   1.000  C
  C42      1.0000 0.47210  0.96010  0.09240  Biso   1.000  C
  C43      1.0000 0.38220  0.11800  0.38200  Biso   1.000  C
  C44      1.0000 0.09250  0.95710  0.47340  Biso   1.000  C
  C45      1.0000 0.38310  0.38310  0.11400  Biso   1.000  C
  C46      1.0000 0.11690  0.11690  0.38110  Biso   1.000  C
  C47      1.0000 0.05150  0.05150  0.45050  Biso   1.000  C
  C48      1.0000 0.61690  0.61690  0.88600  Biso   1.000  C
  C49      1.0000 0.88310  0.88310  0.61890  Biso   1.000  C
  C50      1.0000 0.94850  0.94850  0.54950  Biso   1.000  C
  C51      1.0000 0.19980  0.36640  0.06970  Biso   1.000  C
  C52      1.0000 0.06940  0.36720  0.19730  Biso   1.000  C
  C53      1.0000 0.19960  0.36660  0.36560  Biso   1.000  C
  C54      1.0000 0.06800  0.36680  0.36570  Biso   1.000  C
  C55      1.0000 0.06830  0.19910  0.36730  Biso   1.000  C
  C56      1.0000 0.63360  0.80020  0.93030  Biso   1.000  C
  C57      1.0000 0.63280  0.93060  0.80270  Biso   1.000  C
  C58      1.0000 0.63340  0.80040  0.63440  Biso   1.000  C
  C59      1.0000 0.63320  0.93200  0.63430  Biso   1.000  C
  C60      1.0000 0.80090  0.93170  0.63270  Biso   1.000  C
  C61      1.0000 0.80020  0.63360  0.93030  Biso   1.000  C
  C62      1.0000 0.93060  0.63280  0.80270  Biso   1.000  C
  C63      1.0000 0.80040  0.63340  0.63440  Biso   1.000  C
  C64      1.0000 0.93200  0.63320  0.63430  Biso   1.000  C
  C65      1.0000 0.93170  0.80090  0.63270  Biso   1.000  C
  C66      1.0000 0.36640  0.19980  0.06970  Biso   1.000  C
  C67      1.0000 0.36720  0.06940  0.19730  Biso   1.000  C
  C68      1.0000 0.36660  0.19960  0.36560  Biso   1.000  C
  C69      1.0000 0.36680  0.06800  0.36570  Biso   1.000  C
  C70      1.0000 0.19910  0.06830  0.36730  Biso   1.000  C
  C71      1.0000 0.24870  0.24870  0.25120  Biso   1.000  C
  C72      1.0000 0.36630  0.36630  0.06820  Biso   1.000  C
  C73      1.0000 0.36620  0.36620  0.19910  Biso   1.000  C
  C74      1.0000 0.75130  0.75130  0.74880  Biso   1.000  C
  C75      1.0000 0.63370  0.63370  0.93180  Biso   1.000  C
  C76      1.0000 0.63380  0.63380  0.80090  Biso   1.000  C
  O1       1.0000 0.36668  0.67144  0.47361  Biso   1.000  O
  O2       1.0000 0.36668  0.49723  0.47361  Biso   1.000  O
  O3       1.0000 0.95335  0.08451  0.88663  Biso   1.000  O
  O4       1.0000 0.54089  0.49723  0.47361  Biso   1.000  O
  O5       1.0000 0.95336  0.91031  0.06083  Biso   1.000  O
  O6       1.0000 0.77915  0.08452  0.06083  Biso   1.000  O
  O7       1.0000 0.95336  0.08452  0.06083  Biso   1.000  O
  O8       1.0000 0.36669  0.49724  0.64781  Biso   1.000  O
  O9       1.0000 0.13478  0.75399  0.24224  Biso   1.000  O
  O10      1.0000 0.57317  0.82776  0.29220  Biso   1.000  O
  O11      1.0000 0.74687  0.26595  0.24224  Biso   1.000  O
  O12      1.0000 0.21408  0.73696  0.71331  Biso   1.000  O
  O13      1.0000 0.13476  0.26592  0.73031  Biso   1.000  O
  O14      1.0000 0.21406  0.73694  0.32101  Biso   1.000  O
  O15      1.0000 0.04715  0.90363  0.15462  Biso   1.000  O
  O16      1.0000 0.18525  0.70372  0.29220  Biso   1.000  O
  O17      1.0000 0.18525  0.82776  0.29220  Biso   1.000  O
  O18      1.0000 0.60640  0.34464  0.71331  Biso   1.000  O
  O19      1.0000 0.60638  0.73694  0.32101  Biso   1.000  O
  O20      1.0000 0.13476  0.75397  0.85434  Biso   1.000  O
  O21      1.0000 0.62283  0.87803  0.24224  Biso   1.000  O
  O22      1.0000 0.54757  0.67812  0.37982  Biso   1.000  O
  O23      1.0000 0.27290  0.40345  0.65449  Biso   1.000  O
  O24      1.0000 0.77247  0.17831  0.15462  Biso   1.000  O
  O25      1.0000 0.54757  0.40344  0.37982  Biso   1.000  O
  O26      1.0000 0.27288  0.67812  0.37982  Biso   1.000  O
  O27      1.0000 0.13478  0.87803  0.24224  Biso   1.000  O
  O28      1.0000 0.69721  0.31581  0.29220  Biso   1.000  O
  O29      1.0000 0.77247  0.90363  0.15462  Biso   1.000  O
  O30      1.0000 0.57317  0.31581  0.29220  Biso   1.000  O
  O31      1.0000 0.13476  0.87800  0.73031  Biso   1.000  O
  O32      1.0000 0.54758  0.40345  0.65449  Biso   1.000  O
  O33      1.0000 0.18527  0.31583  0.68010  Biso   1.000  O
  O34      1.0000 0.04714  0.17830  0.87995  Biso   1.000  O
  O35      1.0000 0.71365  0.84482  0.21343  Biso   1.000  O
  O36      1.0000 0.62283  0.26595  0.24224  Biso   1.000  O
  O37      1.0000 0.57320  0.31583  0.80413  Biso   1.000  O
  O38      1.0000 0.27290  0.67814  0.65449  Biso   1.000  O
  O39      1.0000 0.13476  0.26592  0.85434  Biso   1.000  O
  O40      1.0000 0.69723  0.31583  0.68010  Biso   1.000  O
  O41      1.0000 0.10595  0.23711  0.82113  Biso   1.000  O
  O42      1.0000 0.74687  0.75399  0.24224  Biso   1.000  O
  O43      1.0000 0.62281  0.26592  0.85434  Biso   1.000  O
  O44      1.0000 0.04714  0.90362  0.87995  Biso   1.000  O
  O45      1.0000 0.74684  0.26592  0.73031  Biso   1.000  O
  O46      1.0000 0.18527  0.82778  0.68010  Biso   1.000  O
  O47      1.0000 0.18528  0.70375  0.80413  Biso   1.000  O
  O48      1.0000 0.60638  0.34462  0.32101  Biso   1.000  O
  O49      1.0000 0.69721  0.70372  0.29220  Biso   1.000  O
  O50      1.0000 0.71366  0.23714  0.21343  Biso   1.000  O
  O51      1.0000 0.10595  0.84480  0.82113  Biso   1.000  O
  O52      1.0000 0.77245  0.17830  0.87995  Biso   1.000  O
  O53      1.0000 0.71363  0.23711  0.82113  Biso   1.000  O
  O54      1.0000 0.21408  0.34464  0.71331  Biso   1.000  O
  O55      1.0000 0.18528  0.31583  0.80413  Biso   1.000  O
  O56      1.0000 0.10597  0.84482  0.21343  Biso   1.000  O
  O57      1.0000 0.85677  0.86114  0.13371  Biso   1.000  O
  O58      1.0000 0.02624  0.86113  0.96425  Biso   1.000  O
  O59      1.0000 0.46326  0.72062  0.40073  Biso   1.000  O
  O60      1.0000 0.02623  0.15739  0.83746  Biso   1.000  O
  O61      1.0000 0.85676  0.15739  0.83746  Biso   1.000  O
  O62      1.0000 0.29380  0.72062  0.57019  Biso   1.000  O
  O63      1.0000 0.29381  0.42436  0.69698  Biso   1.000  O
  O64      1.0000 0.46328  0.42436  0.69698  Biso   1.000  O
  O65      1.0000 0.72998  0.98794  0.13371  Biso   1.000  O
  O66      1.0000 0.02625  0.98794  0.13371  Biso   1.000  O
  O67      1.0000 0.59006  0.59382  0.40073  Biso   1.000  O
  O68      1.0000 0.72997  0.15740  0.96425  Biso   1.000  O
  O69      1.0000 0.59006  0.42435  0.40073  Biso   1.000  O
  O70      1.0000 0.29379  0.59382  0.40073  Biso   1.000  O
  O71      1.0000 0.46326  0.42435  0.40073  Biso   1.000  O
  O72      1.0000 0.02623  0.98792  0.83746  Biso   1.000  O
  O73      1.0000 0.90980  0.04097  0.01728  Biso   1.000  O
  O74      1.0000 0.02625  0.86114  0.13371  Biso   1.000  O
  O75      1.0000 0.29379  0.72062  0.40073  Biso   1.000  O
  O76      1.0000 0.29380  0.42435  0.57019  Biso   1.000  O
  O77      1.0000 0.85677  0.15741  0.13371  Biso   1.000  O
  O78      1.0000 0.59007  0.42435  0.57019  Biso   1.000  O
  O79      1.0000 0.41023  0.54079  0.51716  Biso   1.000  O
  O80      1.0000 0.72998  0.15741  0.13371  Biso   1.000  O
  O81      1.0000 0.29381  0.59383  0.69698  Biso   1.000  O
  O82      1.0000 0.02624  0.15740  0.96425  Biso   1.000  O
  O83      1.0000 0.11252  0.72171  0.21997  Biso   1.000  O
  O84      1.0000 0.49690  0.86402  0.31221  Biso   1.000  O
  O85      1.0000 0.82368  0.24368  0.21997  Biso   1.000  O
  O86      1.0000 0.11249  0.24365  0.69803  Biso   1.000  O
  O87      1.0000 0.20752  0.62691  0.31447  Biso   1.000  O
  O88      1.0000 0.20526  0.86402  0.31221  Biso   1.000  O
  O89      1.0000 0.11250  0.72169  0.93115  Biso   1.000  O
  O90      1.0000 0.59055  0.95484  0.21997  Biso   1.000  O
  O91      1.0000 0.11252  0.95484  0.21997  Biso   1.000  O
  O92      1.0000 0.72949  0.33807  0.31447  Biso   1.000  O
  O93      1.0000 0.49636  0.33807  0.31447  Biso   1.000  O
  O94      1.0000 0.11249  0.95481  0.69803  Biso   1.000  O
  O95      1.0000 0.20753  0.33809  0.60329  Biso   1.000  O
  O96      1.0000 0.59055  0.24368  0.21997  Biso   1.000  O
  O97      1.0000 0.49692  0.33584  0.84039  Biso   1.000  O
  O98      1.0000 0.11476  0.24592  0.93061  Biso   1.000  O
  O99      1.0000 0.73348  0.33583  0.60383  Biso   1.000  O
  O100     1.0000 0.82314  0.71773  0.22223  Biso   1.000  O
  O101     1.0000 0.59053  0.24366  0.93115  Biso   1.000  O
  O102     1.0000 0.82365  0.24365  0.69803  Biso   1.000  O
  O103     1.0000 0.20527  0.86404  0.60383  Biso   1.000  O
  O104     1.0000 0.20529  0.62748  0.84039  Biso   1.000  O
  O105     1.0000 0.73347  0.62745  0.31221  Biso   1.000  O
