data_image0
_cell_length_a       18.2519
_cell_length_b       18.2519
_cell_length_c       18.252
_cell_angle_alpha    60.0037
_cell_angle_beta     60.0037
_cell_angle_gamma    60.0005

_symmetry_space_group_name_H-M    "P 1"
_symmetry_int_tables_number       1

loop_
  _symmetry_equiv_pos_as_xyz
  'x, y, z'

loop_
  _atom_site_label
  _atom_site_occupancy
  _atom_site_fract_x
  _atom_site_fract_y
  _atom_site_fract_z
  _atom_site_thermal_displace_type
  _atom_site_B_iso_or_equiv
  _atom_site_type_symbol
  Zn1      1.0000 0.88127  0.70639  0.20624  Biso   1.000  Zn
  Zn2      1.0000 0.29361  0.11873  0.79376  Biso   1.000  Zn
  Zn3      1.0000 0.11873  0.29361  0.79376  Biso   1.000  Zn
  Zn4      1.0000 0.70639  0.88127  0.20624  Biso   1.000  Zn
  Zn5      1.0000 0.70606  0.70606  0.38133  Biso   1.000  Zn
  Zn6      1.0000 0.70624  0.70624  0.20614  Biso   1.000  Zn
  Zn7      1.0000 0.29394  0.29394  0.61867  Biso   1.000  Zn
  Zn8      1.0000 0.29376  0.29376  0.79386  Biso   1.000  Zn
  H1       1.0000 0.54630  0.06090  0.34980  Biso   1.000  H
  H2       1.0000 0.54310  0.84610  0.56150  Biso   1.000  H
  H3       1.0000 0.54720  0.05980  0.04610  Biso   1.000  H
  H4       1.0000 0.54320  0.84860  0.04380  Biso   1.000  H
  H5       1.0000 0.06260  0.84660  0.04860  Biso   1.000  H
  H6       1.0000 0.93910  0.45370  0.65020  Biso   1.000  H
  H7       1.0000 0.15390  0.45690  0.43850  Biso   1.000  H
  H8       1.0000 0.94020  0.45280  0.95390  Biso   1.000  H
  H9       1.0000 0.15140  0.45680  0.95620  Biso   1.000  H
  H10      1.0000 0.15340  0.93740  0.95140  Biso   1.000  H
  H11      1.0000 0.45370  0.93910  0.65020  Biso   1.000  H
  H12      1.0000 0.45690  0.15390  0.43850  Biso   1.000  H
  H13      1.0000 0.45280  0.94020  0.95390  Biso   1.000  H
  H14      1.0000 0.45680  0.15140  0.95620  Biso   1.000  H
  H15      1.0000 0.93740  0.15340  0.95140  Biso   1.000  H
  H16      1.0000 0.06090  0.54630  0.34980  Biso   1.000  H
  H17      1.0000 0.84610  0.54310  0.56150  Biso   1.000  H
  H18      1.0000 0.05980  0.54720  0.04610  Biso   1.000  H
  H19      1.0000 0.84860  0.54320  0.04380  Biso   1.000  H
  H20      1.0000 0.84660  0.06260  0.04860  Biso   1.000  H
  H21      1.0000 0.54440  0.54440  0.34770  Biso   1.000  H
  H22      1.0000 0.54330  0.54330  0.56380  Biso   1.000  H
  H23      1.0000 0.45560  0.45560  0.65230  Biso   1.000  H
  H24      1.0000 0.45670  0.45670  0.43620  Biso   1.000  H
  C1       1.0000 0.61220  0.88980  0.38620  Biso   1.000  C
  C2       1.0000 0.55250  0.94790  0.44740  Biso   1.000  C
  C3       1.0000 0.52760  0.03520  0.41200  Biso   1.000  C
  C4       1.0000 0.52640  0.90820  0.53550  Biso   1.000  C
  C5       1.0000 0.61340  0.88660  0.10910  Biso   1.000  C
  C6       1.0000 0.55610  0.94510  0.05380  Biso   1.000  C
  C7       1.0000 0.52920  0.03360  0.02810  Biso   1.000  C
  C8       1.0000 0.52640  0.91060  0.02630  Biso   1.000  C
  C9       1.0000 0.03650  0.90870  0.02850  Biso   1.000  C
  C10      1.0000 0.11020  0.38780  0.61380  Biso   1.000  C
  C11      1.0000 0.05210  0.44750  0.55260  Biso   1.000  C
  C12      1.0000 0.96480  0.47240  0.58800  Biso   1.000  C
  C13      1.0000 0.09180  0.47360  0.46450  Biso   1.000  C
  C14      1.0000 0.11340  0.38660  0.89090  Biso   1.000  C
  C15      1.0000 0.05490  0.44390  0.94620  Biso   1.000  C
  C16      1.0000 0.96640  0.47080  0.97190  Biso   1.000  C
  C17      1.0000 0.08940  0.47360  0.97370  Biso   1.000  C
  C18      1.0000 0.09130  0.96350  0.97150  Biso   1.000  C
  C19      1.0000 0.38780  0.11020  0.61380  Biso   1.000  C
  C20      1.0000 0.44750  0.05210  0.55260  Biso   1.000  C
  C21      1.0000 0.47240  0.96480  0.58800  Biso   1.000  C
  C22      1.0000 0.47360  0.09180  0.46450  Biso   1.000  C
  C23      1.0000 0.38660  0.11340  0.89090  Biso   1.000  C
  C24      1.0000 0.44390  0.05490  0.94620  Biso   1.000  C
  C25      1.0000 0.47080  0.96640  0.97190  Biso   1.000  C
  C26      1.0000 0.47360  0.08940  0.97370  Biso   1.000  C
  C27      1.0000 0.96350  0.09130  0.97150  Biso   1.000  C
  C28      1.0000 0.88980  0.61220  0.38620  Biso   1.000  C
  C29      1.0000 0.94790  0.55250  0.44740  Biso   1.000  C
  C30      1.0000 0.03520  0.52760  0.41200  Biso   1.000  C
  C31      1.0000 0.90820  0.52640  0.53550  Biso   1.000  C
  C32      1.0000 0.88660  0.61340  0.10910  Biso   1.000  C
  C33      1.0000 0.94510  0.55610  0.05380  Biso   1.000  C
  C34      1.0000 0.03360  0.52920  0.02810  Biso   1.000  C
  C35      1.0000 0.91060  0.52640  0.02630  Biso   1.000  C
  C36      1.0000 0.90870  0.03650  0.02850  Biso   1.000  C
  C37      1.0000 0.61140  0.61140  0.39300  Biso   1.000  C
  C38      1.0000 0.55420  0.55420  0.44520  Biso   1.000  C
  C39      1.0000 0.52700  0.52700  0.40970  Biso   1.000  C
  C40      1.0000 0.52580  0.52580  0.53670  Biso   1.000  C
  C41      1.0000 0.88480  0.88480  0.11710  Biso   1.000  C
  C42      1.0000 0.94650  0.94650  0.05370  Biso   1.000  C
  C43      1.0000 0.38860  0.38860  0.60700  Biso   1.000  C
  C44      1.0000 0.44580  0.44580  0.55480  Biso   1.000  C
  C45      1.0000 0.47300  0.47300  0.59030  Biso   1.000  C
  C46      1.0000 0.47420  0.47420  0.46330  Biso   1.000  C
  C47      1.0000 0.11520  0.11520  0.88290  Biso   1.000  C
  C48      1.0000 0.05350  0.05350  0.94630  Biso   1.000  C
  O1       1.0000 0.63160  0.80440  0.43210  Biso   1.000  O
  O2       1.0000 0.63370  0.93370  0.30200  Biso   1.000  O
  O3       1.0000 0.63020  0.80340  0.13560  Biso   1.000  O
  O4       1.0000 0.63310  0.93070  0.13160  Biso   1.000  O
  O5       1.0000 0.93080  0.80240  0.13440  Biso   1.000  O
  O6       1.0000 0.19560  0.36840  0.56790  Biso   1.000  O
  O7       1.0000 0.06630  0.36630  0.69800  Biso   1.000  O
  O8       1.0000 0.19660  0.36980  0.86440  Biso   1.000  O
  O9       1.0000 0.06930  0.36690  0.86840  Biso   1.000  O
  O10      1.0000 0.19760  0.06920  0.86560  Biso   1.000  O
  O11      1.0000 0.36840  0.19560  0.56790  Biso   1.000  O
  O12      1.0000 0.36630  0.06630  0.69800  Biso   1.000  O
  O13      1.0000 0.36980  0.19660  0.86440  Biso   1.000  O
  O14      1.0000 0.36690  0.06930  0.86840  Biso   1.000  O
  O15      1.0000 0.06920  0.19760  0.86560  Biso   1.000  O
  O16      1.0000 0.80440  0.63160  0.43210  Biso   1.000  O
  O17      1.0000 0.93370  0.63370  0.30200  Biso   1.000  O
  O18      1.0000 0.80340  0.63020  0.13560  Biso   1.000  O
  O19      1.0000 0.93070  0.63310  0.13160  Biso   1.000  O
  O20      1.0000 0.80240  0.93080  0.13440  Biso   1.000  O
  O21      1.0000 0.75020  0.75020  0.25030  Biso   1.000  O
  O22      1.0000 0.63260  0.63260  0.43140  Biso   1.000  O
  O23      1.0000 0.63030  0.63030  0.31000  Biso   1.000  O
  O24      1.0000 0.24980  0.24980  0.74970  Biso   1.000  O
  O25      1.0000 0.36740  0.36740  0.56860  Biso   1.000  O
  O26      1.0000 0.36970  0.36970  0.69000  Biso   1.000  O
  Zn9      1.0000 0.99186  0.85186  0.67098  Biso   1.000  Zn
  Zn10     1.0000 0.16601  0.85185  0.49684  Biso   1.000  Zn
  Zn11     1.0000 0.99185  0.85185  0.49684  Biso   1.000  Zn
  Zn12     1.0000 0.99186  0.02600  0.49684  Biso   1.000  Zn
  Zn13     1.0000 0.58255  0.43767  0.90857  Biso   1.000  Zn
  Zn14     1.0000 0.40841  0.43768  0.08271  Biso   1.000  Zn
  Zn15     1.0000 0.58256  0.26352  0.08271  Biso   1.000  Zn
  Zn16     1.0000 0.58256  0.43768  0.08271  Biso   1.000  Zn
  H25      1.0000 0.13323  0.68965  0.85394  Biso   1.000  H
  H26      1.0000 0.35137  0.68969  0.63580  Biso   1.000  H
  H27      1.0000 0.83213  0.99081  0.33468  Biso   1.000  H
  H28      1.0000 0.83212  0.20890  0.33468  Biso   1.000  H
  H29      1.0000 0.83213  0.20892  0.63580  Biso   1.000  H
  H30      1.0000 0.83210  0.99078  0.85394  Biso   1.000  H
  H31      1.0000 0.13326  0.68967  0.33468  Biso   1.000  H
  H32      1.0000 0.35135  0.68967  0.33468  Biso   1.000  H
  H33      1.0000 0.35135  0.99081  0.33468  Biso   1.000  H
  H34      1.0000 0.13325  0.20890  0.33468  Biso   1.000  H
  H35      1.0000 0.83214  0.68969  0.63580  Biso   1.000  H
  H36      1.0000 0.83209  0.68965  0.85394  Biso   1.000  H
  H37      1.0000 0.44119  0.59988  0.72561  Biso   1.000  H
  H38      1.0000 0.22305  0.59983  0.94375  Biso   1.000  H
  H39      1.0000 0.74230  0.08062  0.24487  Biso   1.000  H
  H40      1.0000 0.74229  0.29872  0.24487  Biso   1.000  H
  H41      1.0000 0.74228  0.59983  0.94375  Biso   1.000  H
  H42      1.0000 0.74232  0.59988  0.72561  Biso   1.000  H
  H43      1.0000 0.44117  0.08062  0.24487  Biso   1.000  H
  H44      1.0000 0.22307  0.29872  0.24487  Biso   1.000  H
  H45      1.0000 0.22307  0.59985  0.24487  Biso   1.000  H
  H46      1.0000 0.44116  0.59985  0.24487  Biso   1.000  H
  H47      1.0000 0.74229  0.08060  0.94375  Biso   1.000  H
  H48      1.0000 0.74232  0.29874  0.72561  Biso   1.000  H
  C49      1.0000 0.19671  0.67141  0.82693  Biso   1.000  C
  C50      1.0000 0.32436  0.67146  0.69928  Biso   1.000  C
  C51      1.0000 0.81389  0.05429  0.31645  Biso   1.000  C
  C52      1.0000 0.81388  0.18189  0.31645  Biso   1.000  C
  C53      1.0000 0.81390  0.18191  0.69928  Biso   1.000  C
  C54      1.0000 0.81386  0.05426  0.82693  Biso   1.000  C
  C55      1.0000 0.19674  0.67144  0.31645  Biso   1.000  C
  C56      1.0000 0.32433  0.67144  0.31645  Biso   1.000  C
  C57      1.0000 0.32434  0.05429  0.31645  Biso   1.000  C
  C58      1.0000 0.19674  0.18189  0.31645  Biso   1.000  C
  C59      1.0000 0.81391  0.67146  0.69928  Biso   1.000  C
  C60      1.0000 0.81386  0.67141  0.82693  Biso   1.000  C
  C61      1.0000 0.37771  0.61811  0.75263  Biso   1.000  C
  C62      1.0000 0.25006  0.61807  0.88027  Biso   1.000  C
  C63      1.0000 0.76054  0.10764  0.26310  Biso   1.000  C
  C64      1.0000 0.76053  0.23523  0.26310  Biso   1.000  C
  C65      1.0000 0.76051  0.61807  0.88027  Biso   1.000  C
  C66      1.0000 0.76056  0.61811  0.75263  Biso   1.000  C
  C67      1.0000 0.37768  0.10764  0.26310  Biso   1.000  C
  C68      1.0000 0.25008  0.23523  0.26310  Biso   1.000  C
  C69      1.0000 0.25009  0.61809  0.26310  Biso   1.000  C
  C70      1.0000 0.37768  0.61809  0.26310  Biso   1.000  C
  C71      1.0000 0.76052  0.10762  0.88027  Biso   1.000  C
  C72      1.0000 0.76056  0.23526  0.75263  Biso   1.000  C
  C73      1.0000 0.17414  0.75665  0.67910  Biso   1.000  C
  C74      1.0000 0.23225  0.69855  0.73721  Biso   1.000  C
  C75      1.0000 0.89665  0.03412  0.40164  Biso   1.000  C
  C76      1.0000 0.83853  0.09222  0.34353  Biso   1.000  C
  C77      1.0000 0.89667  0.03413  0.67910  Biso   1.000  C
  C78      1.0000 0.83856  0.09224  0.73721  Biso   1.000  C
  C79      1.0000 0.17412  0.75664  0.40164  Biso   1.000  C
  C80      1.0000 0.23223  0.69853  0.34353  Biso   1.000  C
  C81      1.0000 0.17413  0.03412  0.40164  Biso   1.000  C
  C82      1.0000 0.23223  0.09222  0.34353  Biso   1.000  C
  C83      1.0000 0.89666  0.75665  0.67910  Biso   1.000  C
  C84      1.0000 0.83855  0.69855  0.73721  Biso   1.000  C
  C85      1.0000 0.40028  0.53287  0.90045  Biso   1.000  C
  C86      1.0000 0.34217  0.59098  0.84234  Biso   1.000  C
  C87      1.0000 0.67777  0.25541  0.17791  Biso   1.000  C
  C88      1.0000 0.73588  0.19730  0.23602  Biso   1.000  C
  C89      1.0000 0.67776  0.53287  0.90045  Biso   1.000  C
  C90      1.0000 0.73587  0.59098  0.84234  Biso   1.000  C
  C91      1.0000 0.40029  0.25541  0.17791  Biso   1.000  C
  C92      1.0000 0.34219  0.19730  0.23602  Biso   1.000  C
  C93      1.0000 0.40030  0.53288  0.17791  Biso   1.000  C
  C94      1.0000 0.34219  0.59100  0.23602  Biso   1.000  C
  C95      1.0000 0.67775  0.25539  0.90045  Biso   1.000  C
  C96      1.0000 0.73586  0.19728  0.84234  Biso   1.000  C
  O27      1.0000 0.03539  0.89538  0.54037  Biso   1.000  O
  O28      1.0000 0.53903  0.39414  0.03918  Biso   1.000  O
  O29      1.0000 0.09061  0.77898  0.71798  Biso   1.000  O
  O30      1.0000 0.21302  0.77897  0.59557  Biso   1.000  O
  O31      1.0000 0.91897  0.95058  0.42397  Biso   1.000  O
  O32      1.0000 0.91898  0.07300  0.42397  Biso   1.000  O
  O33      1.0000 0.91899  0.07301  0.59557  Biso   1.000  O
  O34      1.0000 0.91899  0.95060  0.71798  Biso   1.000  O
  O35      1.0000 0.09059  0.77897  0.42397  Biso   1.000  O
  O36      1.0000 0.21301  0.77897  0.42397  Biso   1.000  O
  O37      1.0000 0.21301  0.95058  0.42397  Biso   1.000  O
  O38      1.0000 0.09059  0.07300  0.42397  Biso   1.000  O
  O39      1.0000 0.91898  0.77897  0.59557  Biso   1.000  O
  O40      1.0000 0.91899  0.77898  0.71798  Biso   1.000  O
  O41      1.0000 0.48381  0.51054  0.86157  Biso   1.000  O
  O42      1.0000 0.36140  0.51055  0.98398  Biso   1.000  O
  O43      1.0000 0.65544  0.21652  0.15559  Biso   1.000  O
  O44      1.0000 0.65545  0.33894  0.15559  Biso   1.000  O
  O45      1.0000 0.65544  0.51055  0.98398  Biso   1.000  O
  O46      1.0000 0.65543  0.51054  0.86157  Biso   1.000  O
  O47      1.0000 0.48383  0.21652  0.15559  Biso   1.000  O
  O48      1.0000 0.36141  0.33894  0.15559  Biso   1.000  O
  O49      1.0000 0.36141  0.51056  0.15559  Biso   1.000  O
  O50      1.0000 0.48383  0.51056  0.15559  Biso   1.000  O
  O51      1.0000 0.65543  0.21651  0.98398  Biso   1.000  O
