data_image0
_cell_length_a       18.2519
_cell_length_b       18.2519
_cell_length_c       18.252
_cell_angle_alpha    60.0037
_cell_angle_beta     60.0037
_cell_angle_gamma    60.0005

_symmetry_space_group_name_H-M    "P 1"
_symmetry_int_tables_number       1

loop_
  _symmetry_equiv_pos_as_xyz
  'x, y, z'

loop_
  _atom_site_label
  _atom_site_occupancy
  _atom_site_fract_x
  _atom_site_fract_y
  _atom_site_fract_z
  _atom_site_thermal_displace_type
  _atom_site_B_iso_or_equiv
  _atom_site_type_symbol
  Zn1      1.0000 0.88127  0.70639  0.20624  Biso   1.000  Zn
  Zn2      1.0000 0.29361  0.11873  0.79376  Biso   1.000  Zn
  Zn3      1.0000 0.11873  0.29361  0.79376  Biso   1.000  Zn
  Zn4      1.0000 0.70639  0.88127  0.20624  Biso   1.000  Zn
  Zn5      1.0000 0.70606  0.70606  0.38133  Biso   1.000  Zn
  Zn6      1.0000 0.70624  0.70624  0.20614  Biso   1.000  Zn
  Zn7      1.0000 0.29394  0.29394  0.61867  Biso   1.000  Zn
  Zn8      1.0000 0.29376  0.29376  0.79386  Biso   1.000  Zn
  H1       1.0000 0.54630  0.06090  0.34980  Biso   1.000  H
  H2       1.0000 0.54310  0.84610  0.56150  Biso   1.000  H
  H3       1.0000 0.54720  0.05980  0.04610  Biso   1.000  H
  H4       1.0000 0.54320  0.84860  0.04380  Biso   1.000  H
  H5       1.0000 0.06260  0.84660  0.04860  Biso   1.000  H
  H6       1.0000 0.93910  0.45370  0.65020  Biso   1.000  H
  H7       1.0000 0.15390  0.45690  0.43850  Biso   1.000  H
  H8       1.0000 0.94020  0.45280  0.95390  Biso   1.000  H
  H9       1.0000 0.15140  0.45680  0.95620  Biso   1.000  H
  H10      1.0000 0.15340  0.93740  0.95140  Biso   1.000  H
  H11      1.0000 0.45370  0.93910  0.65020  Biso   1.000  H
  H12      1.0000 0.45690  0.15390  0.43850  Biso   1.000  H
  H13      1.0000 0.45280  0.94020  0.95390  Biso   1.000  H
  H14      1.0000 0.45680  0.15140  0.95620  Biso   1.000  H
  H15      1.0000 0.93740  0.15340  0.95140  Biso   1.000  H
  H16      1.0000 0.06090  0.54630  0.34980  Biso   1.000  H
  H17      1.0000 0.84610  0.54310  0.56150  Biso   1.000  H
  H18      1.0000 0.05980  0.54720  0.04610  Biso   1.000  H
  H19      1.0000 0.84860  0.54320  0.04380  Biso   1.000  H
  H20      1.0000 0.84660  0.06260  0.04860  Biso   1.000  H
  H21      1.0000 0.54440  0.54440  0.34770  Biso   1.000  H
  H22      1.0000 0.54330  0.54330  0.56380  Biso   1.000  H
  H23      1.0000 0.45560  0.45560  0.65230  Biso   1.000  H
  H24      1.0000 0.45670  0.45670  0.43620  Biso   1.000  H
  C1       1.0000 0.61220  0.88980  0.38620  Biso   1.000  C
  C2       1.0000 0.55250  0.94790  0.44740  Biso   1.000  C
  C3       1.0000 0.52760  0.03520  0.41200  Biso   1.000  C
  C4       1.0000 0.52640  0.90820  0.53550  Biso   1.000  C
  C5       1.0000 0.61340  0.88660  0.10910  Biso   1.000  C
  C6       1.0000 0.55610  0.94510  0.05380  Biso   1.000  C
  C7       1.0000 0.52920  0.03360  0.02810  Biso   1.000  C
  C8       1.0000 0.52640  0.91060  0.02630  Biso   1.000  C
  C9       1.0000 0.03650  0.90870  0.02850  Biso   1.000  C
  C10      1.0000 0.11020  0.38780  0.61380  Biso   1.000  C
  C11      1.0000 0.05210  0.44750  0.55260  Biso   1.000  C
  C12      1.0000 0.96480  0.47240  0.58800  Biso   1.000  C
  C13      1.0000 0.09180  0.47360  0.46450  Biso   1.000  C
  C14      1.0000 0.11340  0.38660  0.89090  Biso   1.000  C
  C15      1.0000 0.05490  0.44390  0.94620  Biso   1.000  C
  C16      1.0000 0.96640  0.47080  0.97190  Biso   1.000  C
  C17      1.0000 0.08940  0.47360  0.97370  Biso   1.000  C
  C18      1.0000 0.09130  0.96350  0.97150  Biso   1.000  C
  C19      1.0000 0.38780  0.11020  0.61380  Biso   1.000  C
  C20      1.0000 0.44750  0.05210  0.55260  Biso   1.000  C
  C21      1.0000 0.47240  0.96480  0.58800  Biso   1.000  C
  C22      1.0000 0.47360  0.09180  0.46450  Biso   1.000  C
  C23      1.0000 0.38660  0.11340  0.89090  Biso   1.000  C
  C24      1.0000 0.44390  0.05490  0.94620  Biso   1.000  C
  C25      1.0000 0.47080  0.96640  0.97190  Biso   1.000  C
  C26      1.0000 0.47360  0.08940  0.97370  Biso   1.000  C
  C27      1.0000 0.96350  0.09130  0.97150  Biso   1.000  C
  C28      1.0000 0.88980  0.61220  0.38620  Biso   1.000  C
  C29      1.0000 0.94790  0.55250  0.44740  Biso   1.000  C
  C30      1.0000 0.03520  0.52760  0.41200  Biso   1.000  C
  C31      1.0000 0.90820  0.52640  0.53550  Biso   1.000  C
  C32      1.0000 0.88660  0.61340  0.10910  Biso   1.000  C
  C33      1.0000 0.94510  0.55610  0.05380  Biso   1.000  C
  C34      1.0000 0.03360  0.52920  0.02810  Biso   1.000  C
  C35      1.0000 0.91060  0.52640  0.02630  Biso   1.000  C
  C36      1.0000 0.90870  0.03650  0.02850  Biso   1.000  C
  C37      1.0000 0.61140  0.61140  0.39300  Biso   1.000  C
  C38      1.0000 0.55420  0.55420  0.44520  Biso   1.000  C
  C39      1.0000 0.52700  0.52700  0.40970  Biso   1.000  C
  C40      1.0000 0.52580  0.52580  0.53670  Biso   1.000  C
  C41      1.0000 0.88480  0.88480  0.11710  Biso   1.000  C
  C42      1.0000 0.94650  0.94650  0.05370  Biso   1.000  C
  C43      1.0000 0.38860  0.38860  0.60700  Biso   1.000  C
  C44      1.0000 0.44580  0.44580  0.55480  Biso   1.000  C
  C45      1.0000 0.47300  0.47300  0.59030  Biso   1.000  C
  C46      1.0000 0.47420  0.47420  0.46330  Biso   1.000  C
  C47      1.0000 0.11520  0.11520  0.88290  Biso   1.000  C
  C48      1.0000 0.05350  0.05350  0.94630  Biso   1.000  C
  O1       1.0000 0.63160  0.80440  0.43210  Biso   1.000  O
  O2       1.0000 0.63370  0.93370  0.30200  Biso   1.000  O
  O3       1.0000 0.63020  0.80340  0.13560  Biso   1.000  O
  O4       1.0000 0.63310  0.93070  0.13160  Biso   1.000  O
  O5       1.0000 0.93080  0.80240  0.13440  Biso   1.000  O
  O6       1.0000 0.19560  0.36840  0.56790  Biso   1.000  O
  O7       1.0000 0.06630  0.36630  0.69800  Biso   1.000  O
  O8       1.0000 0.19660  0.36980  0.86440  Biso   1.000  O
  O9       1.0000 0.06930  0.36690  0.86840  Biso   1.000  O
  O10      1.0000 0.19760  0.06920  0.86560  Biso   1.000  O
  O11      1.0000 0.36840  0.19560  0.56790  Biso   1.000  O
  O12      1.0000 0.36630  0.06630  0.69800  Biso   1.000  O
  O13      1.0000 0.36980  0.19660  0.86440  Biso   1.000  O
  O14      1.0000 0.36690  0.06930  0.86840  Biso   1.000  O
  O15      1.0000 0.06920  0.19760  0.86560  Biso   1.000  O
  O16      1.0000 0.80440  0.63160  0.43210  Biso   1.000  O
  O17      1.0000 0.93370  0.63370  0.30200  Biso   1.000  O
  O18      1.0000 0.80340  0.63020  0.13560  Biso   1.000  O
  O19      1.0000 0.93070  0.63310  0.13160  Biso   1.000  O
  O20      1.0000 0.80240  0.93080  0.13440  Biso   1.000  O
  O21      1.0000 0.75020  0.75020  0.25030  Biso   1.000  O
  O22      1.0000 0.63260  0.63260  0.43140  Biso   1.000  O
  O23      1.0000 0.63030  0.63030  0.31000  Biso   1.000  O
  O24      1.0000 0.24980  0.24980  0.74970  Biso   1.000  O
  O25      1.0000 0.36740  0.36740  0.56860  Biso   1.000  O
  O26      1.0000 0.36970  0.36970  0.69000  Biso   1.000  O
  Zn9      1.0000 0.51399  0.50611  0.00000  Biso   1.000  Zn
  Zn10     1.0000 0.92652  0.09351  0.41262  Biso   1.000  Zn
  Zn11     1.0000 0.92651  0.91915  0.41262  Biso   1.000  Zn
  Zn12     1.0000 0.51399  0.33175  0.00000  Biso   1.000  Zn
  Zn13     1.0000 0.51372  0.50630  0.82551  Biso   1.000  Zn
  Zn14     1.0000 0.33928  0.50618  0.00021  Biso   1.000  Zn
  Zn15     1.0000 0.92678  0.91896  0.58711  Biso   1.000  Zn
  Zn16     1.0000 0.10122  0.91908  0.41241  Biso   1.000  Zn
  H25      1.0000 0.67557  0.14883  0.85861  Biso   1.000  H
  H26      1.0000 0.67024  0.36493  0.64471  Biso   1.000  H
  H27      1.0000 0.37471  0.15083  0.16111  Biso   1.000  H
  H28      1.0000 0.15360  0.36613  0.16641  Biso   1.000  H
  H29      1.0000 0.67729  0.36553  0.15931  Biso   1.000  H
  H30      1.0000 0.76494  0.75643  0.55401  Biso   1.000  H
  H31      1.0000 0.77026  0.75333  0.76791  Biso   1.000  H
  H32      1.0000 0.06580  0.76003  0.25151  Biso   1.000  H
  H33      1.0000 0.28690  0.75953  0.24621  Biso   1.000  H
  H34      1.0000 0.76320  0.27554  0.25331  Biso   1.000  H
  H35      1.0000 0.76493  0.27643  0.55401  Biso   1.000  H
  H36      1.0000 0.77026  0.06033  0.76791  Biso   1.000  H
  H37      1.0000 0.06580  0.27443  0.25151  Biso   1.000  H
  H38      1.0000 0.28691  0.05913  0.24621  Biso   1.000  H
  H39      1.0000 0.76321  0.05973  0.25331  Biso   1.000  H
  H40      1.0000 0.67557  0.66883  0.85861  Biso   1.000  H
  H41      1.0000 0.67024  0.67193  0.64471  Biso   1.000  H
  H42      1.0000 0.37470  0.66523  0.16111  Biso   1.000  H
  H43      1.0000 0.15360  0.66573  0.16641  Biso   1.000  H
  H44      1.0000 0.67731  0.14973  0.15931  Biso   1.000  H
  H45      1.0000 0.15747  0.66753  0.85931  Biso   1.000  H
  H46      1.0000 0.37054  0.67023  0.64081  Biso   1.000  H
  H47      1.0000 0.28304  0.75773  0.55331  Biso   1.000  H
  H48      1.0000 0.06996  0.75503  0.77181  Biso   1.000  H
  C49      1.0000 0.60906  0.32203  0.81991  Biso   1.000  C
  C50      1.0000 0.66765  0.26503  0.75951  Biso   1.000  C
  C51      1.0000 0.69447  0.17533  0.79631  Biso   1.000  C
  C52      1.0000 0.69124  0.30273  0.67031  Biso   1.000  C
  C53      1.0000 0.33169  0.32323  0.09651  Biso   1.000  C
  C54      1.0000 0.27459  0.26753  0.15341  Biso   1.000  C
  C55      1.0000 0.31261  0.17653  0.17861  Biso   1.000  C
  C56      1.0000 0.18120  0.30413  0.18201  Biso   1.000  C
  C57      1.0000 0.69360  0.30343  0.17881  Biso   1.000  C
  C58      1.0000 0.83144  0.82443  0.59271  Biso   1.000  C
  C59      1.0000 0.77285  0.76563  0.65311  Biso   1.000  C
  C60      1.0000 0.74604  0.73953  0.61631  Biso   1.000  C
  C61      1.0000 0.74926  0.73773  0.74231  Biso   1.000  C
  C62      1.0000 0.10881  0.82483  0.31611  Biso   1.000  C
  C63      1.0000 0.16590  0.76893  0.25921  Biso   1.000  C
  C64      1.0000 0.12790  0.74113  0.23401  Biso   1.000  C
  C65      1.0000 0.25930  0.74073  0.23061  Biso   1.000  C
  C66      1.0000 0.74689  0.24923  0.23381  Biso   1.000  C
  C67      1.0000 0.83145  0.10323  0.59271  Biso   1.000  C
  C68      1.0000 0.77285  0.16023  0.65311  Biso   1.000  C
  C69      1.0000 0.74604  0.24993  0.61631  Biso   1.000  C
  C70      1.0000 0.74926  0.12253  0.74231  Biso   1.000  C
  C71      1.0000 0.10882  0.10203  0.31611  Biso   1.000  C
  C72      1.0000 0.16591  0.15773  0.25921  Biso   1.000  C
  C73      1.0000 0.12789  0.24873  0.23401  Biso   1.000  C
  C74      1.0000 0.25931  0.12113  0.23061  Biso   1.000  C
  C75      1.0000 0.74691  0.12183  0.23381  Biso   1.000  C
  C76      1.0000 0.60906  0.60083  0.81991  Biso   1.000  C
  C77      1.0000 0.66766  0.65963  0.75951  Biso   1.000  C
  C78      1.0000 0.69446  0.68573  0.79631  Biso   1.000  C
  C79      1.0000 0.69125  0.68753  0.67031  Biso   1.000  C
  C80      1.0000 0.33169  0.60043  0.09651  Biso   1.000  C
  C81      1.0000 0.27460  0.65633  0.15341  Biso   1.000  C
  C82      1.0000 0.31260  0.68413  0.17861  Biso   1.000  C
  C83      1.0000 0.18120  0.68453  0.18201  Biso   1.000  C
  C84      1.0000 0.69361  0.17603  0.17881  Biso   1.000  C
  C85      1.0000 0.33346  0.60253  0.81331  Biso   1.000  C
  C86      1.0000 0.27426  0.65863  0.76031  Biso   1.000  C
  C87      1.0000 0.18406  0.68523  0.79731  Biso   1.000  C
  C88      1.0000 0.30825  0.68763  0.66831  Biso   1.000  C
  C89      1.0000 0.60829  0.32613  0.09131  Biso   1.000  C
  C90      1.0000 0.66669  0.26593  0.15331  Biso   1.000  C
  C91      1.0000 0.10704  0.82273  0.59931  Biso   1.000  C
  C92      1.0000 0.16625  0.76663  0.65231  Biso   1.000  C
  C93      1.0000 0.25644  0.74003  0.61531  Biso   1.000  C
  C94      1.0000 0.13226  0.73763  0.74431  Biso   1.000  C
  C95      1.0000 0.83222  0.09913  0.32131  Biso   1.000  C
  C96      1.0000 0.77381  0.15933  0.25931  Biso   1.000  C
  O27      1.0000 0.58695  0.40773  0.77641  Biso   1.000  O
  O28      1.0000 0.58937  0.28153  0.90261  Biso   1.000  O
  O29      1.0000 0.29079  0.40883  0.07121  Biso   1.000  O
  O30      1.0000 0.41598  0.28303  0.07401  Biso   1.000  O
  O31      1.0000 0.58729  0.40913  0.07171  Biso   1.000  O
  O32      1.0000 0.85355  0.84453  0.63621  Biso   1.000  O
  O33      1.0000 0.85113  0.84693  0.51001  Biso   1.000  O
  O34      1.0000 0.14971  0.84423  0.34141  Biso   1.000  O
  O35      1.0000 0.02451  0.84643  0.33861  Biso   1.000  O
  O36      1.0000 0.85322  0.14153  0.34091  Biso   1.000  O
  O37      1.0000 0.85355  0.01753  0.63621  Biso   1.000  O
  O38      1.0000 0.85114  0.14373  0.51001  Biso   1.000  O
  O39      1.0000 0.14972  0.01643  0.34141  Biso   1.000  O
  O40      1.0000 0.02452  0.14223  0.33861  Biso   1.000  O
  O41      1.0000 0.85322  0.01613  0.34091  Biso   1.000  O
  O42      1.0000 0.58696  0.58073  0.77641  Biso   1.000  O
  O43      1.0000 0.58937  0.57833  0.90261  Biso   1.000  O
  O44      1.0000 0.29079  0.58103  0.07121  Biso   1.000  O
  O45      1.0000 0.41599  0.57883  0.07401  Biso   1.000  O
  O46      1.0000 0.58728  0.28373  0.07171  Biso   1.000  O
  O47      1.0000 0.47027  0.46273  0.95611  Biso   1.000  O
  O48      1.0000 0.41576  0.57933  0.77741  Biso   1.000  O
  O49      1.0000 0.29207  0.58093  0.89791  Biso   1.000  O
  O50      1.0000 0.97023  0.96253  0.45651  Biso   1.000  O
  O51      1.0000 0.02475  0.84593  0.63521  Biso   1.000  O
