data_image0
_cell_length_a       18.2519
_cell_length_b       18.2519
_cell_length_c       18.252
_cell_angle_alpha    60.0037
_cell_angle_beta     60.0037
_cell_angle_gamma    60.0005

_symmetry_space_group_name_H-M    "P 1"
_symmetry_int_tables_number       1

loop_
  _symmetry_equiv_pos_as_xyz
  'x, y, z'

loop_
  _atom_site_label
  _atom_site_occupancy
  _atom_site_fract_x
  _atom_site_fract_y
  _atom_site_fract_z
  _atom_site_thermal_displace_type
  _atom_site_B_iso_or_equiv
  _atom_site_type_symbol
  C1       1.0000 0.88127  0.70639  0.20624  Biso   1.000  C
  C2       1.0000 0.29361  0.11873  0.79376  Biso   1.000  C
  C3       1.0000 0.11873  0.29361  0.79376  Biso   1.000  C
  C4       1.0000 0.70639  0.88127  0.20624  Biso   1.000  C
  C5       1.0000 0.70606  0.70606  0.38133  Biso   1.000  C
  C6       1.0000 0.70624  0.70624  0.20614  Biso   1.000  C
  C7       1.0000 0.29394  0.29394  0.61867  Biso   1.000  C
  C8       1.0000 0.29376  0.29376  0.79386  Biso   1.000  C
  C9       1.0000 0.54630  0.06090  0.34980  Biso   1.000  C
  C10      1.0000 0.54310  0.84610  0.56150  Biso   1.000  C
  C11      1.0000 0.54720  0.05980  0.04610  Biso   1.000  C
  C12      1.0000 0.54320  0.84860  0.04380  Biso   1.000  C
  C13      1.0000 0.06260  0.84660  0.04860  Biso   1.000  C
  C14      1.0000 0.93910  0.45370  0.65020  Biso   1.000  C
  C15      1.0000 0.15390  0.45690  0.43850  Biso   1.000  C
  C16      1.0000 0.94020  0.45280  0.95390  Biso   1.000  C
  C17      1.0000 0.15140  0.45680  0.95620  Biso   1.000  C
  C18      1.0000 0.15340  0.93740  0.95140  Biso   1.000  C
  C19      1.0000 0.45370  0.93910  0.65020  Biso   1.000  C
  C20      1.0000 0.45690  0.15390  0.43850  Biso   1.000  C
  C21      1.0000 0.45280  0.94020  0.95390  Biso   1.000  C
  C22      1.0000 0.45680  0.15140  0.95620  Biso   1.000  C
  C23      1.0000 0.93740  0.15340  0.95140  Biso   1.000  C
  C24      1.0000 0.06090  0.54630  0.34980  Biso   1.000  C
  C25      1.0000 0.84610  0.54310  0.56150  Biso   1.000  C
  C26      1.0000 0.05980  0.54720  0.04610  Biso   1.000  C
  C27      1.0000 0.84860  0.54320  0.04380  Biso   1.000  C
  C28      1.0000 0.84660  0.06260  0.04860  Biso   1.000  C
  C29      1.0000 0.54440  0.54440  0.34770  Biso   1.000  C
  C30      1.0000 0.54330  0.54330  0.56380  Biso   1.000  C
  C31      1.0000 0.45560  0.45560  0.65230  Biso   1.000  C
  C32      1.0000 0.45670  0.45670  0.43620  Biso   1.000  C
  C33      1.0000 0.61220  0.88980  0.38620  Biso   1.000  C
  C34      1.0000 0.55250  0.94790  0.44740  Biso   1.000  C
  C35      1.0000 0.52760  0.03520  0.41200  Biso   1.000  C
  C36      1.0000 0.52640  0.90820  0.53550  Biso   1.000  C
  C37      1.0000 0.61340  0.88660  0.10910  Biso   1.000  C
  C38      1.0000 0.55610  0.94510  0.05380  Biso   1.000  C
  C39      1.0000 0.52920  0.03360  0.02810  Biso   1.000  C
  C40      1.0000 0.52640  0.91060  0.02630  Biso   1.000  C
  C41      1.0000 0.03650  0.90870  0.02850  Biso   1.000  C
  C42      1.0000 0.11020  0.38780  0.61380  Biso   1.000  C
  C43      1.0000 0.05210  0.44750  0.55260  Biso   1.000  C
  C44      1.0000 0.96480  0.47240  0.58800  Biso   1.000  C
  C45      1.0000 0.09180  0.47360  0.46450  Biso   1.000  C
  C46      1.0000 0.11340  0.38660  0.89090  Biso   1.000  C
  C47      1.0000 0.05490  0.44390  0.94620  Biso   1.000  C
  C48      1.0000 0.96640  0.47080  0.97190  Biso   1.000  C
  C49      1.0000 0.08940  0.47360  0.97370  Biso   1.000  C
  C50      1.0000 0.09130  0.96350  0.97150  Biso   1.000  C
  C51      1.0000 0.38780  0.11020  0.61380  Biso   1.000  C
  C52      1.0000 0.44750  0.05210  0.55260  Biso   1.000  C
  C53      1.0000 0.47240  0.96480  0.58800  Biso   1.000  C
  C54      1.0000 0.47360  0.09180  0.46450  Biso   1.000  C
  C55      1.0000 0.38660  0.11340  0.89090  Biso   1.000  C
  C56      1.0000 0.44390  0.05490  0.94620  Biso   1.000  C
  C57      1.0000 0.47080  0.96640  0.97190  Biso   1.000  C
  C58      1.0000 0.47360  0.08940  0.97370  Biso   1.000  C
  C59      1.0000 0.96350  0.09130  0.97150  Biso   1.000  C
  C60      1.0000 0.88980  0.61220  0.38620  Biso   1.000  C
  C61      1.0000 0.94790  0.55250  0.44740  Biso   1.000  C
  C62      1.0000 0.03520  0.52760  0.41200  Biso   1.000  C
  C63      1.0000 0.90820  0.52640  0.53550  Biso   1.000  C
  C64      1.0000 0.88660  0.61340  0.10910  Biso   1.000  C
  C65      1.0000 0.94510  0.55610  0.05380  Biso   1.000  C
  C66      1.0000 0.03360  0.52920  0.02810  Biso   1.000  C
  C67      1.0000 0.91060  0.52640  0.02630  Biso   1.000  C
  C68      1.0000 0.90870  0.03650  0.02850  Biso   1.000  C
  C69      1.0000 0.61140  0.61140  0.39300  Biso   1.000  C
  C70      1.0000 0.55420  0.55420  0.44520  Biso   1.000  C
  C71      1.0000 0.52700  0.52700  0.40970  Biso   1.000  C
  C72      1.0000 0.52580  0.52580  0.53670  Biso   1.000  C
  C73      1.0000 0.88480  0.88480  0.11710  Biso   1.000  C
  C74      1.0000 0.94650  0.94650  0.05370  Biso   1.000  C
  C75      1.0000 0.38860  0.38860  0.60700  Biso   1.000  C
  C76      1.0000 0.44580  0.44580  0.55480  Biso   1.000  C
  C77      1.0000 0.47300  0.47300  0.59030  Biso   1.000  C
  C78      1.0000 0.47420  0.47420  0.46330  Biso   1.000  C
  C79      1.0000 0.11520  0.11520  0.88290  Biso   1.000  C
  C80      1.0000 0.05350  0.05350  0.94630  Biso   1.000  C
  C81      1.0000 0.63160  0.80440  0.43210  Biso   1.000  C
  C82      1.0000 0.63370  0.93370  0.30200  Biso   1.000  C
  C83      1.0000 0.63020  0.80340  0.13560  Biso   1.000  C
  C84      1.0000 0.63310  0.93070  0.13160  Biso   1.000  C
  C85      1.0000 0.93080  0.80240  0.13440  Biso   1.000  C
  C86      1.0000 0.19560  0.36840  0.56790  Biso   1.000  C
  C87      1.0000 0.06630  0.36630  0.69800  Biso   1.000  C
  C88      1.0000 0.19660  0.36980  0.86440  Biso   1.000  C
  C89      1.0000 0.06930  0.36690  0.86840  Biso   1.000  C
  C90      1.0000 0.19760  0.06920  0.86560  Biso   1.000  C
  C91      1.0000 0.36840  0.19560  0.56790  Biso   1.000  C
  C92      1.0000 0.36630  0.06630  0.69800  Biso   1.000  C
  C93      1.0000 0.36980  0.19660  0.86440  Biso   1.000  C
  C94      1.0000 0.36690  0.06930  0.86840  Biso   1.000  C
  C95      1.0000 0.06920  0.19760  0.86560  Biso   1.000  C
  C96      1.0000 0.80440  0.63160  0.43210  Biso   1.000  C
  C97      1.0000 0.93370  0.63370  0.30200  Biso   1.000  C
  C98      1.0000 0.80340  0.63020  0.13560  Biso   1.000  C
  C99      1.0000 0.93070  0.63310  0.13160  Biso   1.000  C
  C100     1.0000 0.80240  0.93080  0.13440  Biso   1.000  C
  C101     1.0000 0.75020  0.75020  0.25030  Biso   1.000  C
  C102     1.0000 0.63260  0.63260  0.43140  Biso   1.000  C
  C103     1.0000 0.63030  0.63030  0.31000  Biso   1.000  C
  C104     1.0000 0.24980  0.24980  0.74970  Biso   1.000  C
  C105     1.0000 0.36740  0.36740  0.56860  Biso   1.000  C
  C106     1.0000 0.36970  0.36970  0.69000  Biso   1.000  C
  O1       1.0000 0.32805  0.52465  0.13420  Biso   1.000  O
  O2       1.0000 0.50037  0.35233  0.13425  Biso   1.000  O
  O3       1.0000 0.50042  0.52465  0.13420  Biso   1.000  O
  O4       1.0000 0.50037  0.52469  0.96189  Biso   1.000  O
  O5       1.0000 0.08938  0.93575  0.54524  Biso   1.000  O
  O6       1.0000 0.91707  0.10807  0.54519  Biso   1.000  O
  O7       1.0000 0.91701  0.93575  0.54524  Biso   1.000  O
  O8       1.0000 0.91707  0.93571  0.71755  Biso   1.000  O
  O9       1.0000 0.16994  0.32488  0.31266  Biso   1.000  O
  O10      1.0000 0.16894  0.70335  0.31466  Biso   1.000  O
  O11      1.0000 0.17011  0.70233  0.93442  Biso   1.000  O
  O12      1.0000 0.30621  0.18863  0.31366  Biso   1.000  O
  O13      1.0000 0.68465  0.18761  0.93422  Biso   1.000  O
  O14      1.0000 0.68368  0.18882  0.31426  Biso   1.000  O
  O15      1.0000 0.67984  0.70312  0.93443  Biso   1.000  O
  O16      1.0000 0.30040  0.70514  0.31287  Biso   1.000  O
  O17      1.0000 0.68046  0.32487  0.31188  Biso   1.000  O
  O18      1.0000 0.67889  0.70416  0.79812  Biso   1.000  O
  O19      1.0000 0.68088  0.32470  0.79712  Biso   1.000  O
  O20      1.0000 0.30063  0.70477  0.79831  Biso   1.000  O
  O21      1.0000 0.24750  0.13552  0.36677  Biso   1.000  O
  O22      1.0000 0.24850  0.75705  0.36478  Biso   1.000  O
  O23      1.0000 0.24732  0.75807  0.74502  Biso   1.000  O
  O24      1.0000 0.11123  0.27177  0.36578  Biso   1.000  O
  O25      1.0000 0.73279  0.27279  0.74521  Biso   1.000  O
  O26      1.0000 0.73376  0.27158  0.36517  Biso   1.000  O
  O27      1.0000 0.73760  0.75728  0.74501  Biso   1.000  O
  O28      1.0000 0.11704  0.75526  0.36657  Biso   1.000  O
  O29      1.0000 0.73698  0.13553  0.36756  Biso   1.000  O
  O30      1.0000 0.73855  0.75624  0.88131  Biso   1.000  O
  O31      1.0000 0.73656  0.13570  0.88232  Biso   1.000  O
  O32      1.0000 0.11681  0.75563  0.88112  Biso   1.000  O
  O33      1.0000 0.26221  0.28649  0.28622  Biso   1.000  O
  O34      1.0000 0.32056  0.34484  0.22787  Biso   1.000  O
  O35      1.0000 0.65240  0.67667  0.89604  Biso   1.000  O
  O36      1.0000 0.59405  0.61832  0.95439  Biso   1.000  O
  O37      1.0000 0.15523  0.17391  0.39321  Biso   1.000  O
  O38      1.0000 0.09688  0.11556  0.45156  Biso   1.000  O
  O39      1.0000 0.76504  0.78373  0.78340  Biso   1.000  O
  O40      1.0000 0.82339  0.84208  0.72505  Biso   1.000  O
  O41      1.0000 0.26199  0.67687  0.89584  Biso   1.000  O
  O42      1.0000 0.32007  0.61880  0.95391  Biso   1.000  O
  O43      1.0000 0.65261  0.28629  0.28642  Biso   1.000  O
  O44      1.0000 0.59454  0.34436  0.22835  Biso   1.000  O
  O45      1.0000 0.15544  0.78353  0.78360  Biso   1.000  O
  O46      1.0000 0.09737  0.84160  0.72553  Biso   1.000  O
  O47      1.0000 0.76483  0.17411  0.39302  Biso   1.000  O
  O48      1.0000 0.82290  0.11604  0.45109  Biso   1.000  O
  O49      1.0000 0.26182  0.67709  0.28662  Biso   1.000  O
  O50      1.0000 0.31989  0.61902  0.22855  Biso   1.000  O
  O51      1.0000 0.65279  0.28607  0.89564  Biso   1.000  O
  O52      1.0000 0.59472  0.34414  0.95371  Biso   1.000  O
  O53      1.0000 0.15562  0.78331  0.39282  Biso   1.000  O
  O54      1.0000 0.09755  0.84138  0.45089  Biso   1.000  O
  O55      1.0000 0.76465  0.17433  0.78379  Biso   1.000  O
  O56      1.0000 0.82272  0.11626  0.72572  Biso   1.000  O
  O57      1.0000 0.28014  0.42861  0.20699  Biso   1.000  O
  O58      1.0000 0.28064  0.59586  0.03732  Biso   1.000  O
  O59      1.0000 0.27979  0.59622  0.20658  Biso   1.000  O
  O60      1.0000 0.40432  0.30442  0.20540  Biso   1.000  O
  O61      1.0000 0.57158  0.30492  0.20733  Biso   1.000  O
  O62      1.0000 0.57193  0.30405  0.03857  Biso   1.000  O
  O63      1.0000 0.57158  0.59745  0.03815  Biso   1.000  O
  O64      1.0000 0.57352  0.42777  0.20540  Biso   1.000  O
  O65      1.0000 0.40475  0.59704  0.20576  Biso   1.000  O
  O66      1.0000 0.57316  0.59585  0.91398  Biso   1.000  O
  O67      1.0000 0.40348  0.59778  0.91448  Biso   1.000  O
  O68      1.0000 0.57274  0.42901  0.91362  Biso   1.000  O
  O69      1.0000 0.13729  0.03179  0.47244  Biso   1.000  O
  O70      1.0000 0.13680  0.86454  0.64212  Biso   1.000  O
  O71      1.0000 0.13765  0.86418  0.47286  Biso   1.000  O
  O72      1.0000 0.01311  0.15598  0.47404  Biso   1.000  O
  O73      1.0000 0.84585  0.15548  0.47211  Biso   1.000  O
  O74      1.0000 0.84551  0.15635  0.64087  Biso   1.000  O
  O75      1.0000 0.84586  0.86295  0.64128  Biso   1.000  O
  O76      1.0000 0.84392  0.03263  0.47404  Biso   1.000  O
  O77      1.0000 0.01269  0.86336  0.47368  Biso   1.000  O
  O78      1.0000 0.84427  0.86455  0.76546  Biso   1.000  O
  O79      1.0000 0.01396  0.86262  0.76496  Biso   1.000  O
  O80      1.0000 0.84469  0.03139  0.76582  Biso   1.000  O
  O81      1.0000 0.45730  0.48158  0.09113  Biso   1.000  O
  O82      1.0000 0.96013  0.97882  0.58831  Biso   1.000  O
  O83      1.0000 0.13694  0.68053  0.29331  Biso   1.000  O
  O84      1.0000 0.37657  0.68379  0.29005  Biso   1.000  O
  O85      1.0000 0.28050  0.77987  0.38612  Biso   1.000  O
  O86      1.0000 0.04087  0.77661  0.38939  Biso   1.000  O
  O87      1.0000 0.65937  0.40104  0.28881  Biso   1.000  O
  O88      1.0000 0.75683  0.30358  0.38626  Biso   1.000  O
  O89      1.0000 0.13812  0.67927  0.01058  Biso   1.000  O
  O90      1.0000 0.04065  0.77672  0.91312  Biso   1.000  O
  O91      1.0000 0.38238  0.15662  0.29199  Biso   1.000  O
  O92      1.0000 0.66183  0.15561  0.01039  Biso   1.000  O
  O93      1.0000 0.76104  0.77791  0.91332  Biso   1.000  O
  O94      1.0000 0.75791  0.05953  0.91432  Biso   1.000  O
  O95      1.0000 0.66061  0.15682  0.29317  Biso   1.000  O
  O96      1.0000 0.75807  0.05936  0.39063  Biso   1.000  O
  O97      1.0000 0.37679  0.68368  0.76631  Biso   1.000  O
  O98      1.0000 0.27932  0.78113  0.66886  Biso   1.000  O
  O99      1.0000 0.75926  0.77977  0.66884  Biso   1.000  O
  O100     1.0000 0.65953  0.40087  0.76512  Biso   1.000  O
  O101     1.0000 0.75560  0.30479  0.66905  Biso   1.000  O
  O102     1.0000 0.65640  0.68249  0.76612  Biso   1.000  O
  O103     1.0000 0.03506  0.30378  0.38745  Biso   1.000  O
  O104     1.0000 0.13793  0.40106  0.29017  Biso   1.000  O
  O105     1.0000 0.27951  0.05934  0.38927  Biso   1.000  O
