data_image0
_cell_length_a       18.2519
_cell_length_b       18.2519
_cell_length_c       18.252
_cell_angle_alpha    60.0037
_cell_angle_beta     60.0037
_cell_angle_gamma    60.0005

_symmetry_space_group_name_H-M    "P 1"
_symmetry_int_tables_number       1

loop_
  _symmetry_equiv_pos_as_xyz
  'x, y, z'

loop_
  _atom_site_label
  _atom_site_occupancy
  _atom_site_fract_x
  _atom_site_fract_y
  _atom_site_fract_z
  _atom_site_thermal_displace_type
  _atom_site_B_iso_or_equiv
  _atom_site_type_symbol
  C1       1.0000 0.88088  0.70652  0.20631  Biso   1.000  C
  C2       1.0000 0.29348  0.11912  0.79369  Biso   1.000  C
  C3       1.0000 0.11912  0.29348  0.79369  Biso   1.000  C
  C4       1.0000 0.70652  0.88088  0.20631  Biso   1.000  C
  C5       1.0000 0.70633  0.70633  0.38080  Biso   1.000  C
  C6       1.0000 0.70645  0.70645  0.20610  Biso   1.000  C
  C7       1.0000 0.29367  0.29367  0.61920  Biso   1.000  C
  C8       1.0000 0.29355  0.29355  0.79390  Biso   1.000  C
  C9       1.0000 0.54380  0.06380  0.34770  Biso   1.000  C
  C10      1.0000 0.54070  0.84770  0.56160  Biso   1.000  C
  C11      1.0000 0.54740  0.06180  0.04520  Biso   1.000  C
  C12      1.0000 0.54690  0.84650  0.03990  Biso   1.000  C
  C13      1.0000 0.06290  0.84710  0.04700  Biso   1.000  C
  C14      1.0000 0.93620  0.45620  0.65230  Biso   1.000  C
  C15      1.0000 0.15230  0.45930  0.43840  Biso   1.000  C
  C16      1.0000 0.93820  0.45260  0.95480  Biso   1.000  C
  C17      1.0000 0.15350  0.45310  0.96010  Biso   1.000  C
  C18      1.0000 0.15290  0.93710  0.95300  Biso   1.000  C
  C19      1.0000 0.45620  0.93620  0.65230  Biso   1.000  C
  C20      1.0000 0.45930  0.15230  0.43840  Biso   1.000  C
  C21      1.0000 0.45260  0.93820  0.95480  Biso   1.000  C
  C22      1.0000 0.45310  0.15350  0.96010  Biso   1.000  C
  C23      1.0000 0.93710  0.15290  0.95300  Biso   1.000  C
  C24      1.0000 0.06380  0.54380  0.34770  Biso   1.000  C
  C25      1.0000 0.84770  0.54070  0.56160  Biso   1.000  C
  C26      1.0000 0.06180  0.54740  0.04520  Biso   1.000  C
  C27      1.0000 0.84650  0.54690  0.03990  Biso   1.000  C
  C28      1.0000 0.84710  0.06290  0.04700  Biso   1.000  C
  C29      1.0000 0.54510  0.54510  0.34700  Biso   1.000  C
  C30      1.0000 0.54240  0.54240  0.56550  Biso   1.000  C
  C31      1.0000 0.45490  0.45490  0.65300  Biso   1.000  C
  C32      1.0000 0.45760  0.45760  0.43450  Biso   1.000  C
  C33      1.0000 0.61180  0.89060  0.38640  Biso   1.000  C
  C34      1.0000 0.55300  0.94760  0.44680  Biso   1.000  C
  C35      1.0000 0.52690  0.03730  0.41000  Biso   1.000  C
  C36      1.0000 0.52510  0.90990  0.53600  Biso   1.000  C
  C37      1.0000 0.61220  0.88940  0.10980  Biso   1.000  C
  C38      1.0000 0.55630  0.94510  0.05290  Biso   1.000  C
  C39      1.0000 0.52850  0.03610  0.02770  Biso   1.000  C
  C40      1.0000 0.52810  0.90850  0.02430  Biso   1.000  C
  C41      1.0000 0.03660  0.90920  0.02750  Biso   1.000  C
  C42      1.0000 0.10940  0.38820  0.61360  Biso   1.000  C
  C43      1.0000 0.05240  0.44700  0.55320  Biso   1.000  C
  C44      1.0000 0.96270  0.47310  0.59000  Biso   1.000  C
  C45      1.0000 0.09010  0.47490  0.46400  Biso   1.000  C
  C46      1.0000 0.11060  0.38780  0.89020  Biso   1.000  C
  C47      1.0000 0.05490  0.44370  0.94710  Biso   1.000  C
  C48      1.0000 0.96390  0.47150  0.97230  Biso   1.000  C
  C49      1.0000 0.09150  0.47190  0.97570  Biso   1.000  C
  C50      1.0000 0.09080  0.96340  0.97250  Biso   1.000  C
  C51      1.0000 0.38820  0.10940  0.61360  Biso   1.000  C
  C52      1.0000 0.44700  0.05240  0.55320  Biso   1.000  C
  C53      1.0000 0.47310  0.96270  0.59000  Biso   1.000  C
  C54      1.0000 0.47490  0.09010  0.46400  Biso   1.000  C
  C55      1.0000 0.38780  0.11060  0.89020  Biso   1.000  C
  C56      1.0000 0.44370  0.05490  0.94710  Biso   1.000  C
  C57      1.0000 0.47150  0.96390  0.97230  Biso   1.000  C
  C58      1.0000 0.47190  0.09150  0.97570  Biso   1.000  C
  C59      1.0000 0.96340  0.09080  0.97250  Biso   1.000  C
  C60      1.0000 0.89060  0.61180  0.38640  Biso   1.000  C
  C61      1.0000 0.94760  0.55300  0.44680  Biso   1.000  C
  C62      1.0000 0.03730  0.52690  0.41000  Biso   1.000  C
  C63      1.0000 0.90990  0.52510  0.53600  Biso   1.000  C
  C64      1.0000 0.88940  0.61220  0.10980  Biso   1.000  C
  C65      1.0000 0.94510  0.55630  0.05290  Biso   1.000  C
  C66      1.0000 0.03610  0.52850  0.02770  Biso   1.000  C
  C67      1.0000 0.90850  0.52810  0.02430  Biso   1.000  C
  C68      1.0000 0.90920  0.03660  0.02750  Biso   1.000  C
  C69      1.0000 0.61010  0.61010  0.39300  Biso   1.000  C
  C70      1.0000 0.55400  0.55400  0.44600  Biso   1.000  C
  C71      1.0000 0.52740  0.52740  0.40900  Biso   1.000  C
  C72      1.0000 0.52500  0.52500  0.53800  Biso   1.000  C
  C73      1.0000 0.88650  0.88650  0.11500  Biso   1.000  C
  C74      1.0000 0.94670  0.94670  0.05300  Biso   1.000  C
  C75      1.0000 0.38990  0.38990  0.60700  Biso   1.000  C
  C76      1.0000 0.44600  0.44600  0.55400  Biso   1.000  C
  C77      1.0000 0.47260  0.47260  0.59100  Biso   1.000  C
  C78      1.0000 0.47500  0.47500  0.46200  Biso   1.000  C
  C79      1.0000 0.11350  0.11350  0.88500  Biso   1.000  C
  C80      1.0000 0.05330  0.05330  0.94700  Biso   1.000  C
  C81      1.0000 0.63190  0.80490  0.42990  Biso   1.000  C
  C82      1.0000 0.63430  0.93110  0.30370  Biso   1.000  C
  C83      1.0000 0.63160  0.80380  0.13510  Biso   1.000  C
  C84      1.0000 0.63380  0.92960  0.13230  Biso   1.000  C
  C85      1.0000 0.92890  0.80350  0.13460  Biso   1.000  C
  C86      1.0000 0.19510  0.36810  0.57010  Biso   1.000  C
  C87      1.0000 0.06890  0.36570  0.69630  Biso   1.000  C
  C88      1.0000 0.19620  0.36840  0.86490  Biso   1.000  C
  C89      1.0000 0.07040  0.36620  0.86770  Biso   1.000  C
  C90      1.0000 0.19650  0.07110  0.86540  Biso   1.000  C
  C91      1.0000 0.36810  0.19510  0.57010  Biso   1.000  C
  C92      1.0000 0.36570  0.06890  0.69630  Biso   1.000  C
  C93      1.0000 0.36840  0.19620  0.86490  Biso   1.000  C
  C94      1.0000 0.36620  0.07040  0.86770  Biso   1.000  C
  C95      1.0000 0.07110  0.19650  0.86540  Biso   1.000  C
  C96      1.0000 0.80490  0.63190  0.42990  Biso   1.000  C
  C97      1.0000 0.93110  0.63430  0.30370  Biso   1.000  C
  C98      1.0000 0.80380  0.63160  0.13510  Biso   1.000  C
  C99      1.0000 0.92960  0.63380  0.13230  Biso   1.000  C
  C100     1.0000 0.80350  0.92890  0.13460  Biso   1.000  C
  C101     1.0000 0.74990  0.74990  0.25020  Biso   1.000  C
  C102     1.0000 0.63330  0.63330  0.42890  Biso   1.000  C
  C103     1.0000 0.63170  0.63170  0.30840  Biso   1.000  C
  C104     1.0000 0.25010  0.25010  0.74980  Biso   1.000  C
  C105     1.0000 0.36670  0.36670  0.57110  Biso   1.000  C
  C106     1.0000 0.36830  0.36830  0.69160  Biso   1.000  C
  O1       1.0000 0.99186  0.85186  0.67098  Biso   1.000  O
  O2       1.0000 0.16608  0.85185  0.49677  Biso   1.000  O
  O3       1.0000 0.99185  0.85185  0.49677  Biso   1.000  O
  O4       1.0000 0.99186  0.02607  0.49677  Biso   1.000  O
  O5       1.0000 0.58010  0.43853  0.90929  Biso   1.000  O
  O6       1.0000 0.40588  0.43854  0.08351  Biso   1.000  O
  O7       1.0000 0.58011  0.26432  0.08351  Biso   1.000  O
  O8       1.0000 0.58011  0.43854  0.08351  Biso   1.000  O
  O9       1.0000 0.13353  0.68951  0.85392  Biso   1.000  O
  O10      1.0000 0.34976  0.68955  0.63769  Biso   1.000  O
  O11      1.0000 0.83032  0.99277  0.33447  Biso   1.000  O
  O12      1.0000 0.83032  0.20896  0.33447  Biso   1.000  O
  O13      1.0000 0.83033  0.20897  0.63769  Biso   1.000  O
  O14      1.0000 0.83030  0.99274  0.85392  Biso   1.000  O
  O15      1.0000 0.13356  0.68953  0.33447  Biso   1.000  O
  O16      1.0000 0.34974  0.68953  0.33447  Biso   1.000  O
  O17      1.0000 0.34975  0.99277  0.33447  Biso   1.000  O
  O18      1.0000 0.13355  0.20896  0.33447  Biso   1.000  O
  O19      1.0000 0.83034  0.68955  0.63769  Biso   1.000  O
  O20      1.0000 0.83029  0.68951  0.85392  Biso   1.000  O
  O21      1.0000 0.43844  0.60088  0.72635  Biso   1.000  O
  O22      1.0000 0.22220  0.60084  0.94259  Biso   1.000  O
  O23      1.0000 0.74165  0.08143  0.24581  Biso   1.000  O
  O24      1.0000 0.74164  0.29762  0.24581  Biso   1.000  O
  O25      1.0000 0.74163  0.60084  0.94259  Biso   1.000  O
  O26      1.0000 0.74167  0.60088  0.72635  Biso   1.000  O
  O27      1.0000 0.43841  0.08143  0.24581  Biso   1.000  O
  O28      1.0000 0.22222  0.29762  0.24581  Biso   1.000  O
  O29      1.0000 0.22222  0.60086  0.24581  Biso   1.000  O
  O30      1.0000 0.43841  0.60086  0.24581  Biso   1.000  O
  O31      1.0000 0.74163  0.08142  0.94259  Biso   1.000  O
  O32      1.0000 0.74167  0.29765  0.72635  Biso   1.000  O
  O33      1.0000 0.19558  0.67177  0.82734  Biso   1.000  O
  O34      1.0000 0.32318  0.67182  0.69973  Biso   1.000  O
  O35      1.0000 0.81259  0.05482  0.31674  Biso   1.000  O
  O36      1.0000 0.81258  0.18238  0.31674  Biso   1.000  O
  O37      1.0000 0.81260  0.18240  0.69973  Biso   1.000  O
  O38      1.0000 0.81256  0.05479  0.82734  Biso   1.000  O
  O39      1.0000 0.19561  0.67180  0.31674  Biso   1.000  O
  O40      1.0000 0.32316  0.67180  0.31674  Biso   1.000  O
  O41      1.0000 0.32317  0.05482  0.31674  Biso   1.000  O
  O42      1.0000 0.19560  0.18238  0.31674  Biso   1.000  O
  O43      1.0000 0.81261  0.67182  0.69973  Biso   1.000  O
  O44      1.0000 0.81256  0.67177  0.82734  Biso   1.000  O
  O45      1.0000 0.37639  0.61862  0.75293  Biso   1.000  O
  O46      1.0000 0.24878  0.61857  0.88054  Biso   1.000  O
  O47      1.0000 0.75939  0.10801  0.26354  Biso   1.000  O
  O48      1.0000 0.75938  0.23558  0.26354  Biso   1.000  O
  O49      1.0000 0.75936  0.61857  0.88054  Biso   1.000  O
  O50      1.0000 0.75941  0.61862  0.75293  Biso   1.000  O
  O51      1.0000 0.37637  0.10801  0.26354  Biso   1.000  O
  O52      1.0000 0.24880  0.23558  0.26354  Biso   1.000  O
  O53      1.0000 0.24880  0.61859  0.26354  Biso   1.000  O
  O54      1.0000 0.37636  0.61859  0.26354  Biso   1.000  O
  O55      1.0000 0.75936  0.10799  0.88054  Biso   1.000  O
  O56      1.0000 0.75940  0.23560  0.75293  Biso   1.000  O
  O57      1.0000 0.17411  0.75672  0.67900  Biso   1.000  O
  O58      1.0000 0.23183  0.69901  0.73671  Biso   1.000  O
  O59      1.0000 0.89672  0.03408  0.40164  Biso   1.000  O
  O60      1.0000 0.83900  0.09180  0.34393  Biso   1.000  O
  O61      1.0000 0.89673  0.03410  0.67900  Biso   1.000  O
  O62      1.0000 0.83902  0.09182  0.73671  Biso   1.000  O
  O63      1.0000 0.17409  0.75671  0.40164  Biso   1.000  O
  O64      1.0000 0.23180  0.69899  0.34393  Biso   1.000  O
  O65      1.0000 0.17409  0.03408  0.40164  Biso   1.000  O
  O66      1.0000 0.23181  0.09180  0.34393  Biso   1.000  O
  O67      1.0000 0.89673  0.75672  0.67900  Biso   1.000  O
  O68      1.0000 0.83902  0.69901  0.73671  Biso   1.000  O
  O69      1.0000 0.39786  0.53367  0.90128  Biso   1.000  O
  O70      1.0000 0.34014  0.59138  0.84356  Biso   1.000  O
  O71      1.0000 0.67525  0.25631  0.17864  Biso   1.000  O
  O72      1.0000 0.73297  0.19859  0.23635  Biso   1.000  O
  O73      1.0000 0.67524  0.53367  0.90128  Biso   1.000  O
  O74      1.0000 0.73295  0.59138  0.84356  Biso   1.000  O
  O75      1.0000 0.39787  0.25631  0.17864  Biso   1.000  O
  O76      1.0000 0.34016  0.19859  0.23635  Biso   1.000  O
  O77      1.0000 0.39787  0.53368  0.17864  Biso   1.000  O
  O78      1.0000 0.34016  0.59140  0.23635  Biso   1.000  O
  O79      1.0000 0.67523  0.25629  0.90128  Biso   1.000  O
  O80      1.0000 0.73294  0.19857  0.84356  Biso   1.000  O
  O81      1.0000 0.03541  0.89540  0.54032  Biso   1.000  O
  O82      1.0000 0.53655  0.39499  0.03996  Biso   1.000  O
  O83      1.0000 0.09067  0.77915  0.71758  Biso   1.000  O
  O84      1.0000 0.21268  0.77915  0.59557  Biso   1.000  O
  O85      1.0000 0.91914  0.95065  0.42406  Biso   1.000  O
  O86      1.0000 0.91915  0.07266  0.42406  Biso   1.000  O
  O87      1.0000 0.91916  0.07267  0.59557  Biso   1.000  O
  O88      1.0000 0.91916  0.95067  0.71758  Biso   1.000  O
  O89      1.0000 0.09066  0.77914  0.42406  Biso   1.000  O
  O90      1.0000 0.21267  0.77914  0.42406  Biso   1.000  O
  O91      1.0000 0.21267  0.95065  0.42406  Biso   1.000  O
  O92      1.0000 0.09066  0.07266  0.42406  Biso   1.000  O
  O93      1.0000 0.91915  0.77915  0.59557  Biso   1.000  O
  O94      1.0000 0.91916  0.77915  0.71758  Biso   1.000  O
  O95      1.0000 0.48129  0.51124  0.86270  Biso   1.000  O
  O96      1.0000 0.35928  0.51125  0.98471  Biso   1.000  O
  O97      1.0000 0.65282  0.21773  0.15621  Biso   1.000  O
  O98      1.0000 0.65282  0.33974  0.15621  Biso   1.000  O
  O99      1.0000 0.65281  0.51125  0.98471  Biso   1.000  O
  O100     1.0000 0.65281  0.51124  0.86270  Biso   1.000  O
  O101     1.0000 0.48131  0.21773  0.15621  Biso   1.000  O
  O102     1.0000 0.35929  0.33974  0.15621  Biso   1.000  O
  O103     1.0000 0.35929  0.51125  0.15621  Biso   1.000  O
  O104     1.0000 0.48131  0.51125  0.15621  Biso   1.000  O
  O105     1.0000 0.65281  0.21772  0.98471  Biso   1.000  O
