data_image0
_cell_length_a       18.2519
_cell_length_b       18.2519
_cell_length_c       18.252
_cell_angle_alpha    60.0037
_cell_angle_beta     60.0037
_cell_angle_gamma    60.0005

_symmetry_space_group_name_H-M    "P 1"
_symmetry_int_tables_number       1

loop_
  _symmetry_equiv_pos_as_xyz
  'x, y, z'

loop_
  _atom_site_label
  _atom_site_occupancy
  _atom_site_fract_x
  _atom_site_fract_y
  _atom_site_fract_z
  _atom_site_thermal_displace_type
  _atom_site_B_iso_or_equiv
  _atom_site_type_symbol
  C1       1.0000 0.88127  0.70639  0.20624  Biso   1.000  C
  C2       1.0000 0.29361  0.11873  0.79376  Biso   1.000  C
  C3       1.0000 0.11873  0.29361  0.79376  Biso   1.000  C
  C4       1.0000 0.70639  0.88127  0.20624  Biso   1.000  C
  C5       1.0000 0.70606  0.70606  0.38133  Biso   1.000  C
  C6       1.0000 0.70624  0.70624  0.20614  Biso   1.000  C
  C7       1.0000 0.29394  0.29394  0.61867  Biso   1.000  C
  C8       1.0000 0.29376  0.29376  0.79386  Biso   1.000  C
  C9       1.0000 0.54630  0.06090  0.34980  Biso   1.000  C
  C10      1.0000 0.54310  0.84610  0.56150  Biso   1.000  C
  C11      1.0000 0.54720  0.05980  0.04610  Biso   1.000  C
  C12      1.0000 0.54320  0.84860  0.04380  Biso   1.000  C
  C13      1.0000 0.06260  0.84660  0.04860  Biso   1.000  C
  C14      1.0000 0.93910  0.45370  0.65020  Biso   1.000  C
  C15      1.0000 0.15390  0.45690  0.43850  Biso   1.000  C
  C16      1.0000 0.94020  0.45280  0.95390  Biso   1.000  C
  C17      1.0000 0.15140  0.45680  0.95620  Biso   1.000  C
  C18      1.0000 0.15340  0.93740  0.95140  Biso   1.000  C
  C19      1.0000 0.45370  0.93910  0.65020  Biso   1.000  C
  C20      1.0000 0.45690  0.15390  0.43850  Biso   1.000  C
  C21      1.0000 0.45280  0.94020  0.95390  Biso   1.000  C
  C22      1.0000 0.45680  0.15140  0.95620  Biso   1.000  C
  C23      1.0000 0.93740  0.15340  0.95140  Biso   1.000  C
  C24      1.0000 0.06090  0.54630  0.34980  Biso   1.000  C
  C25      1.0000 0.84610  0.54310  0.56150  Biso   1.000  C
  C26      1.0000 0.05980  0.54720  0.04610  Biso   1.000  C
  C27      1.0000 0.84860  0.54320  0.04380  Biso   1.000  C
  C28      1.0000 0.84660  0.06260  0.04860  Biso   1.000  C
  C29      1.0000 0.54440  0.54440  0.34770  Biso   1.000  C
  C30      1.0000 0.54330  0.54330  0.56380  Biso   1.000  C
  C31      1.0000 0.45560  0.45560  0.65230  Biso   1.000  C
  C32      1.0000 0.45670  0.45670  0.43620  Biso   1.000  C
  C33      1.0000 0.61220  0.88980  0.38620  Biso   1.000  C
  C34      1.0000 0.55250  0.94790  0.44740  Biso   1.000  C
  C35      1.0000 0.52760  0.03520  0.41200  Biso   1.000  C
  C36      1.0000 0.52640  0.90820  0.53550  Biso   1.000  C
  C37      1.0000 0.61340  0.88660  0.10910  Biso   1.000  C
  C38      1.0000 0.55610  0.94510  0.05380  Biso   1.000  C
  C39      1.0000 0.52920  0.03360  0.02810  Biso   1.000  C
  C40      1.0000 0.52640  0.91060  0.02630  Biso   1.000  C
  C41      1.0000 0.03650  0.90870  0.02850  Biso   1.000  C
  C42      1.0000 0.11020  0.38780  0.61380  Biso   1.000  C
  C43      1.0000 0.05210  0.44750  0.55260  Biso   1.000  C
  C44      1.0000 0.96480  0.47240  0.58800  Biso   1.000  C
  C45      1.0000 0.09180  0.47360  0.46450  Biso   1.000  C
  C46      1.0000 0.11340  0.38660  0.89090  Biso   1.000  C
  C47      1.0000 0.05490  0.44390  0.94620  Biso   1.000  C
  C48      1.0000 0.96640  0.47080  0.97190  Biso   1.000  C
  C49      1.0000 0.08940  0.47360  0.97370  Biso   1.000  C
  C50      1.0000 0.09130  0.96350  0.97150  Biso   1.000  C
  C51      1.0000 0.38780  0.11020  0.61380  Biso   1.000  C
  C52      1.0000 0.44750  0.05210  0.55260  Biso   1.000  C
  C53      1.0000 0.47240  0.96480  0.58800  Biso   1.000  C
  C54      1.0000 0.47360  0.09180  0.46450  Biso   1.000  C
  C55      1.0000 0.38660  0.11340  0.89090  Biso   1.000  C
  C56      1.0000 0.44390  0.05490  0.94620  Biso   1.000  C
  C57      1.0000 0.47080  0.96640  0.97190  Biso   1.000  C
  C58      1.0000 0.47360  0.08940  0.97370  Biso   1.000  C
  C59      1.0000 0.96350  0.09130  0.97150  Biso   1.000  C
  C60      1.0000 0.88980  0.61220  0.38620  Biso   1.000  C
  C61      1.0000 0.94790  0.55250  0.44740  Biso   1.000  C
  C62      1.0000 0.03520  0.52760  0.41200  Biso   1.000  C
  C63      1.0000 0.90820  0.52640  0.53550  Biso   1.000  C
  C64      1.0000 0.88660  0.61340  0.10910  Biso   1.000  C
  C65      1.0000 0.94510  0.55610  0.05380  Biso   1.000  C
  C66      1.0000 0.03360  0.52920  0.02810  Biso   1.000  C
  C67      1.0000 0.91060  0.52640  0.02630  Biso   1.000  C
  C68      1.0000 0.90870  0.03650  0.02850  Biso   1.000  C
  C69      1.0000 0.61140  0.61140  0.39300  Biso   1.000  C
  C70      1.0000 0.55420  0.55420  0.44520  Biso   1.000  C
  C71      1.0000 0.52700  0.52700  0.40970  Biso   1.000  C
  C72      1.0000 0.52580  0.52580  0.53670  Biso   1.000  C
  C73      1.0000 0.88480  0.88480  0.11710  Biso   1.000  C
  C74      1.0000 0.94650  0.94650  0.05370  Biso   1.000  C
  C75      1.0000 0.38860  0.38860  0.60700  Biso   1.000  C
  C76      1.0000 0.44580  0.44580  0.55480  Biso   1.000  C
  C77      1.0000 0.47300  0.47300  0.59030  Biso   1.000  C
  C78      1.0000 0.47420  0.47420  0.46330  Biso   1.000  C
  C79      1.0000 0.11520  0.11520  0.88290  Biso   1.000  C
  C80      1.0000 0.05350  0.05350  0.94630  Biso   1.000  C
  C81      1.0000 0.63160  0.80440  0.43210  Biso   1.000  C
  C82      1.0000 0.63370  0.93370  0.30200  Biso   1.000  C
  C83      1.0000 0.63020  0.80340  0.13560  Biso   1.000  C
  C84      1.0000 0.63310  0.93070  0.13160  Biso   1.000  C
  C85      1.0000 0.93080  0.80240  0.13440  Biso   1.000  C
  C86      1.0000 0.19560  0.36840  0.56790  Biso   1.000  C
  C87      1.0000 0.06630  0.36630  0.69800  Biso   1.000  C
  C88      1.0000 0.19660  0.36980  0.86440  Biso   1.000  C
  C89      1.0000 0.06930  0.36690  0.86840  Biso   1.000  C
  C90      1.0000 0.19760  0.06920  0.86560  Biso   1.000  C
  C91      1.0000 0.36840  0.19560  0.56790  Biso   1.000  C
  C92      1.0000 0.36630  0.06630  0.69800  Biso   1.000  C
  C93      1.0000 0.36980  0.19660  0.86440  Biso   1.000  C
  C94      1.0000 0.36690  0.06930  0.86840  Biso   1.000  C
  C95      1.0000 0.06920  0.19760  0.86560  Biso   1.000  C
  C96      1.0000 0.80440  0.63160  0.43210  Biso   1.000  C
  C97      1.0000 0.93370  0.63370  0.30200  Biso   1.000  C
  C98      1.0000 0.80340  0.63020  0.13560  Biso   1.000  C
  C99      1.0000 0.93070  0.63310  0.13160  Biso   1.000  C
  C100     1.0000 0.80240  0.93080  0.13440  Biso   1.000  C
  C101     1.0000 0.75020  0.75020  0.25030  Biso   1.000  C
  C102     1.0000 0.63260  0.63260  0.43140  Biso   1.000  C
  C103     1.0000 0.63030  0.63030  0.31000  Biso   1.000  C
  C104     1.0000 0.24980  0.24980  0.74970  Biso   1.000  C
  C105     1.0000 0.36740  0.36740  0.56860  Biso   1.000  C
  C106     1.0000 0.36970  0.36970  0.69000  Biso   1.000  C
  O1       1.0000 0.55899  0.57261  0.93938  Biso   1.000  O
  O2       1.0000 0.55899  0.39984  0.93938  Biso   1.000  O
  O3       1.0000 0.15736  0.98226  0.34898  Biso   1.000  O
  O4       1.0000 0.73177  0.39984  0.93938  Biso   1.000  O
  O5       1.0000 0.15737  0.80949  0.52174  Biso   1.000  O
  O6       1.0000 0.98459  0.98227  0.52174  Biso   1.000  O
  O7       1.0000 0.15737  0.98227  0.52174  Biso   1.000  O
  O8       1.0000 0.55900  0.39984  0.11214  Biso   1.000  O
  O9       1.0000 0.33729  0.65447  0.70165  Biso   1.000  O
  O10      1.0000 0.76378  0.72763  0.75947  Biso   1.000  O
  O11      1.0000 0.95258  0.16219  0.70165  Biso   1.000  O
  O12      1.0000 0.40766  0.63758  0.17709  Biso   1.000  O
  O13      1.0000 0.33727  0.16216  0.19396  Biso   1.000  O
  O14      1.0000 0.40764  0.63756  0.78804  Biso   1.000  O
  O15      1.0000 0.25038  0.80287  0.61475  Biso   1.000  O
  O16      1.0000 0.37907  0.60462  0.75947  Biso   1.000  O
  O17      1.0000 0.37907  0.72763  0.75947  Biso   1.000  O
  O18      1.0000 0.79674  0.24850  0.17709  Biso   1.000  O
  O19      1.0000 0.79672  0.63756  0.78804  Biso   1.000  O
  O20      1.0000 0.33727  0.65445  0.31696  Biso   1.000  O
  O21      1.0000 0.82957  0.77748  0.70165  Biso   1.000  O
  O22      1.0000 0.73839  0.57923  0.84637  Biso   1.000  O
  O23      1.0000 0.46599  0.30683  0.11876  Biso   1.000  O
  O24      1.0000 0.97797  0.07528  0.61475  Biso   1.000  O
  O25      1.0000 0.73839  0.30682  0.84637  Biso   1.000  O
  O26      1.0000 0.46598  0.57923  0.84637  Biso   1.000  O
  O27      1.0000 0.33729  0.77748  0.70165  Biso   1.000  O
  O28      1.0000 0.88679  0.21991  0.75947  Biso   1.000  O
  O29      1.0000 0.97797  0.80287  0.61475  Biso   1.000  O
  O30      1.0000 0.76378  0.21991  0.75947  Biso   1.000  O
  O31      1.0000 0.33726  0.77745  0.19396  Biso   1.000  O
  O32      1.0000 0.73840  0.30683  0.11876  Biso   1.000  O
  O33      1.0000 0.37909  0.21993  0.14416  Biso   1.000  O
  O34      1.0000 0.25037  0.07527  0.34236  Biso   1.000  O
  O35      1.0000 0.91964  0.74454  0.67308  Biso   1.000  O
  O36      1.0000 0.82957  0.16219  0.70165  Biso   1.000  O
  O37      1.0000 0.76380  0.21994  0.26716  Biso   1.000  O
  O38      1.0000 0.46599  0.57924  0.11876  Biso   1.000  O
  O39      1.0000 0.33727  0.16217  0.31696  Biso   1.000  O
  O40      1.0000 0.88681  0.21993  0.14416  Biso   1.000  O
  O41      1.0000 0.30870  0.13360  0.28403  Biso   1.000  O
  O42      1.0000 0.95258  0.65447  0.70165  Biso   1.000  O
  O43      1.0000 0.82955  0.16217  0.31696  Biso   1.000  O
  O44      1.0000 0.25037  0.80286  0.34236  Biso   1.000  O
  O45      1.0000 0.95255  0.16216  0.19396  Biso   1.000  O
  O46      1.0000 0.37909  0.72765  0.14416  Biso   1.000  O
  O47      1.0000 0.37910  0.60465  0.26716  Biso   1.000  O
  O48      1.0000 0.79671  0.24848  0.78804  Biso   1.000  O
  O49      1.0000 0.88679  0.60462  0.75947  Biso   1.000  O
  O50      1.0000 0.91965  0.13362  0.67308  Biso   1.000  O
  O51      1.0000 0.30870  0.74452  0.28403  Biso   1.000  O
  O52      1.0000 0.97796  0.07527  0.34236  Biso   1.000  O
  O53      1.0000 0.91962  0.13360  0.28403  Biso   1.000  O
  O54      1.0000 0.40766  0.24850  0.17709  Biso   1.000  O
  O55      1.0000 0.37909  0.21994  0.26716  Biso   1.000  O
  O56      1.0000 0.30872  0.74454  0.67308  Biso   1.000  O
  O57      1.0000 0.06158  0.76073  0.59402  Biso   1.000  O
  O58      1.0000 0.22964  0.76072  0.42596  Biso   1.000  O
  O59      1.0000 0.65478  0.62137  0.86710  Biso   1.000  O
  O60      1.0000 0.22963  0.05453  0.30022  Biso   1.000  O
  O61      1.0000 0.06156  0.05453  0.30022  Biso   1.000  O
  O62      1.0000 0.48672  0.62138  0.03516  Biso   1.000  O
  O63      1.0000 0.48672  0.32757  0.16090  Biso   1.000  O
  O64      1.0000 0.65480  0.32757  0.16090  Biso   1.000  O
  O65      1.0000 0.93583  0.88648  0.59402  Biso   1.000  O
  O66      1.0000 0.22965  0.88648  0.59402  Biso   1.000  O
  O67      1.0000 0.78053  0.49562  0.86710  Biso   1.000  O
  O68      1.0000 0.93582  0.05454  0.42596  Biso   1.000  O
  O69      1.0000 0.78053  0.32755  0.86710  Biso   1.000  O
  O70      1.0000 0.48671  0.49562  0.86710  Biso   1.000  O
  O71      1.0000 0.65478  0.32755  0.86710  Biso   1.000  O
  O72      1.0000 0.22963  0.88646  0.30022  Biso   1.000  O
  O73      1.0000 0.11417  0.93907  0.47855  Biso   1.000  O
  O74      1.0000 0.22965  0.76073  0.59402  Biso   1.000  O
  O75      1.0000 0.48671  0.62137  0.86710  Biso   1.000  O
  O76      1.0000 0.48672  0.32756  0.03516  Biso   1.000  O
  O77      1.0000 0.06158  0.05455  0.59402  Biso   1.000  O
  O78      1.0000 0.78054  0.32756  0.03516  Biso   1.000  O
  O79      1.0000 0.60219  0.44303  0.98257  Biso   1.000  O
  O80      1.0000 0.93583  0.05455  0.59402  Biso   1.000  O
  O81      1.0000 0.48673  0.49564  0.16090  Biso   1.000  O
  O82      1.0000 0.22964  0.05454  0.42596  Biso   1.000  O
  O83      1.0000 0.31521  0.62246  0.67957  Biso   1.000  O
  O84      1.0000 0.68814  0.76359  0.77931  Biso   1.000  O
  O85      1.0000 0.02876  0.14011  0.67957  Biso   1.000  O
  O86      1.0000 0.31518  0.14008  0.16195  Biso   1.000  O
  O87      1.0000 0.40115  0.52844  0.78155  Biso   1.000  O
  O88      1.0000 0.39891  0.76359  0.77931  Biso   1.000  O
  O89      1.0000 0.31519  0.62244  0.39313  Biso   1.000  O
  O90      1.0000 0.79755  0.85366  0.67957  Biso   1.000  O
  O91      1.0000 0.31521  0.85366  0.67957  Biso   1.000  O
  O92      1.0000 0.91880  0.24200  0.78155  Biso   1.000  O
  O93      1.0000 0.68760  0.24200  0.78155  Biso   1.000  O
  O94      1.0000 0.31518  0.85363  0.16195  Biso   1.000  O
  O95      1.0000 0.40117  0.24201  0.06799  Biso   1.000  O
  O96      1.0000 0.79756  0.14011  0.67957  Biso   1.000  O
  O97      1.0000 0.68816  0.23978  0.30312  Biso   1.000  O
  O98      1.0000 0.31744  0.14233  0.39260  Biso   1.000  O
  O99      1.0000 0.92277  0.23977  0.06852  Biso   1.000  O
  O100     1.0000 0.02822  0.61851  0.68181  Biso   1.000  O
  O101     1.0000 0.79754  0.14009  0.39313  Biso   1.000  O
  O102     1.0000 0.02873  0.14008  0.16195  Biso   1.000  O
  O103     1.0000 0.39893  0.76361  0.06852  Biso   1.000  O
  O104     1.0000 0.39894  0.52901  0.30312  Biso   1.000  O
  O105     1.0000 0.92275  0.52898  0.77931  Biso   1.000  O
