data_image0
_cell_length_a       18.2519
_cell_length_b       18.2519
_cell_length_c       18.252
_cell_angle_alpha    60.0037
_cell_angle_beta     60.0037
_cell_angle_gamma    60.0005

_symmetry_space_group_name_H-M    "P 1"
_symmetry_int_tables_number       1

loop_
  _symmetry_equiv_pos_as_xyz
  'x, y, z'

loop_
  _atom_site_label
  _atom_site_occupancy
  _atom_site_fract_x
  _atom_site_fract_y
  _atom_site_fract_z
  _atom_site_thermal_displace_type
  _atom_site_B_iso_or_equiv
  _atom_site_type_symbol
  C1       1.0000 0.88127  0.70639  0.20624  Biso   1.000  C
  C2       1.0000 0.29361  0.11873  0.79376  Biso   1.000  C
  C3       1.0000 0.11873  0.29361  0.79376  Biso   1.000  C
  C4       1.0000 0.70639  0.88127  0.20624  Biso   1.000  C
  C5       1.0000 0.70606  0.70606  0.38133  Biso   1.000  C
  C6       1.0000 0.70624  0.70624  0.20614  Biso   1.000  C
  C7       1.0000 0.29394  0.29394  0.61867  Biso   1.000  C
  C8       1.0000 0.29376  0.29376  0.79386  Biso   1.000  C
  C9       1.0000 0.54630  0.06090  0.34980  Biso   1.000  C
  C10      1.0000 0.54310  0.84610  0.56150  Biso   1.000  C
  C11      1.0000 0.54720  0.05980  0.04610  Biso   1.000  C
  C12      1.0000 0.54320  0.84860  0.04380  Biso   1.000  C
  C13      1.0000 0.06260  0.84660  0.04860  Biso   1.000  C
  C14      1.0000 0.93910  0.45370  0.65020  Biso   1.000  C
  C15      1.0000 0.15390  0.45690  0.43850  Biso   1.000  C
  C16      1.0000 0.94020  0.45280  0.95390  Biso   1.000  C
  C17      1.0000 0.15140  0.45680  0.95620  Biso   1.000  C
  C18      1.0000 0.15340  0.93740  0.95140  Biso   1.000  C
  C19      1.0000 0.45370  0.93910  0.65020  Biso   1.000  C
  C20      1.0000 0.45690  0.15390  0.43850  Biso   1.000  C
  C21      1.0000 0.45280  0.94020  0.95390  Biso   1.000  C
  C22      1.0000 0.45680  0.15140  0.95620  Biso   1.000  C
  C23      1.0000 0.93740  0.15340  0.95140  Biso   1.000  C
  C24      1.0000 0.06090  0.54630  0.34980  Biso   1.000  C
  C25      1.0000 0.84610  0.54310  0.56150  Biso   1.000  C
  C26      1.0000 0.05980  0.54720  0.04610  Biso   1.000  C
  C27      1.0000 0.84860  0.54320  0.04380  Biso   1.000  C
  C28      1.0000 0.84660  0.06260  0.04860  Biso   1.000  C
  C29      1.0000 0.54440  0.54440  0.34770  Biso   1.000  C
  C30      1.0000 0.54330  0.54330  0.56380  Biso   1.000  C
  C31      1.0000 0.45560  0.45560  0.65230  Biso   1.000  C
  C32      1.0000 0.45670  0.45670  0.43620  Biso   1.000  C
  C33      1.0000 0.61220  0.88980  0.38620  Biso   1.000  C
  C34      1.0000 0.55250  0.94790  0.44740  Biso   1.000  C
  C35      1.0000 0.52760  0.03520  0.41200  Biso   1.000  C
  C36      1.0000 0.52640  0.90820  0.53550  Biso   1.000  C
  C37      1.0000 0.61340  0.88660  0.10910  Biso   1.000  C
  C38      1.0000 0.55610  0.94510  0.05380  Biso   1.000  C
  C39      1.0000 0.52920  0.03360  0.02810  Biso   1.000  C
  C40      1.0000 0.52640  0.91060  0.02630  Biso   1.000  C
  C41      1.0000 0.03650  0.90870  0.02850  Biso   1.000  C
  C42      1.0000 0.11020  0.38780  0.61380  Biso   1.000  C
  C43      1.0000 0.05210  0.44750  0.55260  Biso   1.000  C
  C44      1.0000 0.96480  0.47240  0.58800  Biso   1.000  C
  C45      1.0000 0.09180  0.47360  0.46450  Biso   1.000  C
  C46      1.0000 0.11340  0.38660  0.89090  Biso   1.000  C
  C47      1.0000 0.05490  0.44390  0.94620  Biso   1.000  C
  C48      1.0000 0.96640  0.47080  0.97190  Biso   1.000  C
  C49      1.0000 0.08940  0.47360  0.97370  Biso   1.000  C
  C50      1.0000 0.09130  0.96350  0.97150  Biso   1.000  C
  C51      1.0000 0.38780  0.11020  0.61380  Biso   1.000  C
  C52      1.0000 0.44750  0.05210  0.55260  Biso   1.000  C
  C53      1.0000 0.47240  0.96480  0.58800  Biso   1.000  C
  C54      1.0000 0.47360  0.09180  0.46450  Biso   1.000  C
  C55      1.0000 0.38660  0.11340  0.89090  Biso   1.000  C
  C56      1.0000 0.44390  0.05490  0.94620  Biso   1.000  C
  C57      1.0000 0.47080  0.96640  0.97190  Biso   1.000  C
  C58      1.0000 0.47360  0.08940  0.97370  Biso   1.000  C
  C59      1.0000 0.96350  0.09130  0.97150  Biso   1.000  C
  C60      1.0000 0.88980  0.61220  0.38620  Biso   1.000  C
  C61      1.0000 0.94790  0.55250  0.44740  Biso   1.000  C
  C62      1.0000 0.03520  0.52760  0.41200  Biso   1.000  C
  C63      1.0000 0.90820  0.52640  0.53550  Biso   1.000  C
  C64      1.0000 0.88660  0.61340  0.10910  Biso   1.000  C
  C65      1.0000 0.94510  0.55610  0.05380  Biso   1.000  C
  C66      1.0000 0.03360  0.52920  0.02810  Biso   1.000  C
  C67      1.0000 0.91060  0.52640  0.02630  Biso   1.000  C
  C68      1.0000 0.90870  0.03650  0.02850  Biso   1.000  C
  C69      1.0000 0.61140  0.61140  0.39300  Biso   1.000  C
  C70      1.0000 0.55420  0.55420  0.44520  Biso   1.000  C
  C71      1.0000 0.52700  0.52700  0.40970  Biso   1.000  C
  C72      1.0000 0.52580  0.52580  0.53670  Biso   1.000  C
  C73      1.0000 0.88480  0.88480  0.11710  Biso   1.000  C
  C74      1.0000 0.94650  0.94650  0.05370  Biso   1.000  C
  C75      1.0000 0.38860  0.38860  0.60700  Biso   1.000  C
  C76      1.0000 0.44580  0.44580  0.55480  Biso   1.000  C
  C77      1.0000 0.47300  0.47300  0.59030  Biso   1.000  C
  C78      1.0000 0.47420  0.47420  0.46330  Biso   1.000  C
  C79      1.0000 0.11520  0.11520  0.88290  Biso   1.000  C
  C80      1.0000 0.05350  0.05350  0.94630  Biso   1.000  C
  C81      1.0000 0.63160  0.80440  0.43210  Biso   1.000  C
  C82      1.0000 0.63370  0.93370  0.30200  Biso   1.000  C
  C83      1.0000 0.63020  0.80340  0.13560  Biso   1.000  C
  C84      1.0000 0.63310  0.93070  0.13160  Biso   1.000  C
  C85      1.0000 0.93080  0.80240  0.13440  Biso   1.000  C
  C86      1.0000 0.19560  0.36840  0.56790  Biso   1.000  C
  C87      1.0000 0.06630  0.36630  0.69800  Biso   1.000  C
  C88      1.0000 0.19660  0.36980  0.86440  Biso   1.000  C
  C89      1.0000 0.06930  0.36690  0.86840  Biso   1.000  C
  C90      1.0000 0.19760  0.06920  0.86560  Biso   1.000  C
  C91      1.0000 0.36840  0.19560  0.56790  Biso   1.000  C
  C92      1.0000 0.36630  0.06630  0.69800  Biso   1.000  C
  C93      1.0000 0.36980  0.19660  0.86440  Biso   1.000  C
  C94      1.0000 0.36690  0.06930  0.86840  Biso   1.000  C
  C95      1.0000 0.06920  0.19760  0.86560  Biso   1.000  C
  C96      1.0000 0.80440  0.63160  0.43210  Biso   1.000  C
  C97      1.0000 0.93370  0.63370  0.30200  Biso   1.000  C
  C98      1.0000 0.80340  0.63020  0.13560  Biso   1.000  C
  C99      1.0000 0.93070  0.63310  0.13160  Biso   1.000  C
  C100     1.0000 0.80240  0.93080  0.13440  Biso   1.000  C
  C101     1.0000 0.75020  0.75020  0.25030  Biso   1.000  C
  C102     1.0000 0.63260  0.63260  0.43140  Biso   1.000  C
  C103     1.0000 0.63030  0.63030  0.31000  Biso   1.000  C
  C104     1.0000 0.24980  0.24980  0.74970  Biso   1.000  C
  C105     1.0000 0.36740  0.36740  0.56860  Biso   1.000  C
  C106     1.0000 0.36970  0.36970  0.69000  Biso   1.000  C
  O1       1.0000 0.99186  0.85186  0.67098  Biso   1.000  O
  O2       1.0000 0.16608  0.85185  0.49677  Biso   1.000  O
  O3       1.0000 0.99185  0.85185  0.49677  Biso   1.000  O
  O4       1.0000 0.99186  0.02607  0.49677  Biso   1.000  O
  O5       1.0000 0.58010  0.43853  0.90929  Biso   1.000  O
  O6       1.0000 0.40588  0.43854  0.08351  Biso   1.000  O
  O7       1.0000 0.58011  0.26432  0.08351  Biso   1.000  O
  O8       1.0000 0.58011  0.43854  0.08351  Biso   1.000  O
  O9       1.0000 0.13353  0.68951  0.85392  Biso   1.000  O
  O10      1.0000 0.34976  0.68955  0.63769  Biso   1.000  O
  O11      1.0000 0.83032  0.99277  0.33447  Biso   1.000  O
  O12      1.0000 0.83032  0.20896  0.33447  Biso   1.000  O
  O13      1.0000 0.83033  0.20897  0.63769  Biso   1.000  O
  O14      1.0000 0.83030  0.99274  0.85392  Biso   1.000  O
  O15      1.0000 0.13356  0.68953  0.33447  Biso   1.000  O
  O16      1.0000 0.34974  0.68953  0.33447  Biso   1.000  O
  O17      1.0000 0.34975  0.99277  0.33447  Biso   1.000  O
  O18      1.0000 0.13355  0.20896  0.33447  Biso   1.000  O
  O19      1.0000 0.83034  0.68955  0.63769  Biso   1.000  O
  O20      1.0000 0.83029  0.68951  0.85392  Biso   1.000  O
  O21      1.0000 0.43844  0.60088  0.72635  Biso   1.000  O
  O22      1.0000 0.22220  0.60084  0.94259  Biso   1.000  O
  O23      1.0000 0.74165  0.08143  0.24581  Biso   1.000  O
  O24      1.0000 0.74164  0.29762  0.24581  Biso   1.000  O
  O25      1.0000 0.74163  0.60084  0.94259  Biso   1.000  O
  O26      1.0000 0.74167  0.60088  0.72635  Biso   1.000  O
  O27      1.0000 0.43841  0.08143  0.24581  Biso   1.000  O
  O28      1.0000 0.22222  0.29762  0.24581  Biso   1.000  O
  O29      1.0000 0.22222  0.60086  0.24581  Biso   1.000  O
  O30      1.0000 0.43841  0.60086  0.24581  Biso   1.000  O
  O31      1.0000 0.74163  0.08142  0.94259  Biso   1.000  O
  O32      1.0000 0.74167  0.29765  0.72635  Biso   1.000  O
  O33      1.0000 0.19558  0.67177  0.82734  Biso   1.000  O
  O34      1.0000 0.32318  0.67182  0.69973  Biso   1.000  O
  O35      1.0000 0.81259  0.05482  0.31674  Biso   1.000  O
  O36      1.0000 0.81258  0.18238  0.31674  Biso   1.000  O
  O37      1.0000 0.81260  0.18240  0.69973  Biso   1.000  O
  O38      1.0000 0.81256  0.05479  0.82734  Biso   1.000  O
  O39      1.0000 0.19561  0.67180  0.31674  Biso   1.000  O
  O40      1.0000 0.32316  0.67180  0.31674  Biso   1.000  O
  O41      1.0000 0.32317  0.05482  0.31674  Biso   1.000  O
  O42      1.0000 0.19560  0.18238  0.31674  Biso   1.000  O
  O43      1.0000 0.81261  0.67182  0.69973  Biso   1.000  O
  O44      1.0000 0.81256  0.67177  0.82734  Biso   1.000  O
  O45      1.0000 0.37639  0.61862  0.75293  Biso   1.000  O
  O46      1.0000 0.24878  0.61857  0.88054  Biso   1.000  O
  O47      1.0000 0.75939  0.10801  0.26354  Biso   1.000  O
  O48      1.0000 0.75938  0.23558  0.26354  Biso   1.000  O
  O49      1.0000 0.75936  0.61857  0.88054  Biso   1.000  O
  O50      1.0000 0.75941  0.61862  0.75293  Biso   1.000  O
  O51      1.0000 0.37637  0.10801  0.26354  Biso   1.000  O
  O52      1.0000 0.24880  0.23558  0.26354  Biso   1.000  O
  O53      1.0000 0.24880  0.61859  0.26354  Biso   1.000  O
  O54      1.0000 0.37636  0.61859  0.26354  Biso   1.000  O
  O55      1.0000 0.75936  0.10799  0.88054  Biso   1.000  O
  O56      1.0000 0.75940  0.23560  0.75293  Biso   1.000  O
  O57      1.0000 0.17411  0.75672  0.67900  Biso   1.000  O
  O58      1.0000 0.23183  0.69901  0.73671  Biso   1.000  O
  O59      1.0000 0.89672  0.03408  0.40164  Biso   1.000  O
  O60      1.0000 0.83900  0.09180  0.34393  Biso   1.000  O
  O61      1.0000 0.89673  0.03410  0.67900  Biso   1.000  O
  O62      1.0000 0.83902  0.09182  0.73671  Biso   1.000  O
  O63      1.0000 0.17409  0.75671  0.40164  Biso   1.000  O
  O64      1.0000 0.23180  0.69899  0.34393  Biso   1.000  O
  O65      1.0000 0.17409  0.03408  0.40164  Biso   1.000  O
  O66      1.0000 0.23181  0.09180  0.34393  Biso   1.000  O
  O67      1.0000 0.89673  0.75672  0.67900  Biso   1.000  O
  O68      1.0000 0.83902  0.69901  0.73671  Biso   1.000  O
  O69      1.0000 0.39786  0.53367  0.90128  Biso   1.000  O
  O70      1.0000 0.34014  0.59138  0.84356  Biso   1.000  O
  O71      1.0000 0.67525  0.25631  0.17864  Biso   1.000  O
  O72      1.0000 0.73297  0.19859  0.23635  Biso   1.000  O
  O73      1.0000 0.67524  0.53367  0.90128  Biso   1.000  O
  O74      1.0000 0.73295  0.59138  0.84356  Biso   1.000  O
  O75      1.0000 0.39787  0.25631  0.17864  Biso   1.000  O
  O76      1.0000 0.34016  0.19859  0.23635  Biso   1.000  O
  O77      1.0000 0.39787  0.53368  0.17864  Biso   1.000  O
  O78      1.0000 0.34016  0.59140  0.23635  Biso   1.000  O
  O79      1.0000 0.67523  0.25629  0.90128  Biso   1.000  O
  O80      1.0000 0.73294  0.19857  0.84356  Biso   1.000  O
  O81      1.0000 0.03541  0.89540  0.54032  Biso   1.000  O
  O82      1.0000 0.53655  0.39499  0.03996  Biso   1.000  O
  O83      1.0000 0.09067  0.77915  0.71758  Biso   1.000  O
  O84      1.0000 0.21268  0.77915  0.59557  Biso   1.000  O
  O85      1.0000 0.91914  0.95065  0.42406  Biso   1.000  O
  O86      1.0000 0.91915  0.07266  0.42406  Biso   1.000  O
  O87      1.0000 0.91916  0.07267  0.59557  Biso   1.000  O
  O88      1.0000 0.91916  0.95067  0.71758  Biso   1.000  O
  O89      1.0000 0.09066  0.77914  0.42406  Biso   1.000  O
  O90      1.0000 0.21267  0.77914  0.42406  Biso   1.000  O
  O91      1.0000 0.21267  0.95065  0.42406  Biso   1.000  O
  O92      1.0000 0.09066  0.07266  0.42406  Biso   1.000  O
  O93      1.0000 0.91915  0.77915  0.59557  Biso   1.000  O
  O94      1.0000 0.91916  0.77915  0.71758  Biso   1.000  O
  O95      1.0000 0.48129  0.51124  0.86270  Biso   1.000  O
  O96      1.0000 0.35928  0.51125  0.98471  Biso   1.000  O
  O97      1.0000 0.65282  0.21773  0.15621  Biso   1.000  O
  O98      1.0000 0.65282  0.33974  0.15621  Biso   1.000  O
  O99      1.0000 0.65281  0.51125  0.98471  Biso   1.000  O
  O100     1.0000 0.65281  0.51124  0.86270  Biso   1.000  O
  O101     1.0000 0.48131  0.21773  0.15621  Biso   1.000  O
  O102     1.0000 0.35929  0.33974  0.15621  Biso   1.000  O
  O103     1.0000 0.35929  0.51125  0.15621  Biso   1.000  O
  O104     1.0000 0.48131  0.51125  0.15621  Biso   1.000  O
  O105     1.0000 0.65281  0.21772  0.98471  Biso   1.000  O
