data_image0
_cell_length_a       18.2519
_cell_length_b       18.2519
_cell_length_c       18.252
_cell_angle_alpha    60.0037
_cell_angle_beta     60.0037
_cell_angle_gamma    60.0005

_symmetry_space_group_name_H-M    "P 1"
_symmetry_int_tables_number       1

loop_
  _symmetry_equiv_pos_as_xyz
  'x, y, z'

loop_
  _atom_site_label
  _atom_site_occupancy
  _atom_site_fract_x
  _atom_site_fract_y
  _atom_site_fract_z
  _atom_site_thermal_displace_type
  _atom_site_B_iso_or_equiv
  _atom_site_type_symbol
  C1       1.0000 0.88088  0.70652  0.20631  Biso   1.000  C
  C2       1.0000 0.29348  0.11912  0.79369  Biso   1.000  C
  C3       1.0000 0.11912  0.29348  0.79369  Biso   1.000  C
  C4       1.0000 0.70652  0.88088  0.20631  Biso   1.000  C
  C5       1.0000 0.70633  0.70633  0.38080  Biso   1.000  C
  C6       1.0000 0.70645  0.70645  0.20610  Biso   1.000  C
  C7       1.0000 0.29367  0.29367  0.61920  Biso   1.000  C
  C8       1.0000 0.29355  0.29355  0.79390  Biso   1.000  C
  C9       1.0000 0.54380  0.06380  0.34770  Biso   1.000  C
  C10      1.0000 0.54070  0.84770  0.56160  Biso   1.000  C
  C11      1.0000 0.54740  0.06180  0.04520  Biso   1.000  C
  C12      1.0000 0.54690  0.84650  0.03990  Biso   1.000  C
  C13      1.0000 0.06290  0.84710  0.04700  Biso   1.000  C
  C14      1.0000 0.93620  0.45620  0.65230  Biso   1.000  C
  C15      1.0000 0.15230  0.45930  0.43840  Biso   1.000  C
  C16      1.0000 0.93820  0.45260  0.95480  Biso   1.000  C
  C17      1.0000 0.15350  0.45310  0.96010  Biso   1.000  C
  C18      1.0000 0.15290  0.93710  0.95300  Biso   1.000  C
  C19      1.0000 0.45620  0.93620  0.65230  Biso   1.000  C
  C20      1.0000 0.45930  0.15230  0.43840  Biso   1.000  C
  C21      1.0000 0.45260  0.93820  0.95480  Biso   1.000  C
  C22      1.0000 0.45310  0.15350  0.96010  Biso   1.000  C
  C23      1.0000 0.93710  0.15290  0.95300  Biso   1.000  C
  C24      1.0000 0.06380  0.54380  0.34770  Biso   1.000  C
  C25      1.0000 0.84770  0.54070  0.56160  Biso   1.000  C
  C26      1.0000 0.06180  0.54740  0.04520  Biso   1.000  C
  C27      1.0000 0.84650  0.54690  0.03990  Biso   1.000  C
  C28      1.0000 0.84710  0.06290  0.04700  Biso   1.000  C
  C29      1.0000 0.54510  0.54510  0.34700  Biso   1.000  C
  C30      1.0000 0.54240  0.54240  0.56550  Biso   1.000  C
  C31      1.0000 0.45490  0.45490  0.65300  Biso   1.000  C
  C32      1.0000 0.45760  0.45760  0.43450  Biso   1.000  C
  C33      1.0000 0.61180  0.89060  0.38640  Biso   1.000  C
  C34      1.0000 0.55300  0.94760  0.44680  Biso   1.000  C
  C35      1.0000 0.52690  0.03730  0.41000  Biso   1.000  C
  C36      1.0000 0.52510  0.90990  0.53600  Biso   1.000  C
  C37      1.0000 0.61220  0.88940  0.10980  Biso   1.000  C
  C38      1.0000 0.55630  0.94510  0.05290  Biso   1.000  C
  C39      1.0000 0.52850  0.03610  0.02770  Biso   1.000  C
  C40      1.0000 0.52810  0.90850  0.02430  Biso   1.000  C
  C41      1.0000 0.03660  0.90920  0.02750  Biso   1.000  C
  C42      1.0000 0.10940  0.38820  0.61360  Biso   1.000  C
  C43      1.0000 0.05240  0.44700  0.55320  Biso   1.000  C
  C44      1.0000 0.96270  0.47310  0.59000  Biso   1.000  C
  C45      1.0000 0.09010  0.47490  0.46400  Biso   1.000  C
  C46      1.0000 0.11060  0.38780  0.89020  Biso   1.000  C
  C47      1.0000 0.05490  0.44370  0.94710  Biso   1.000  C
  C48      1.0000 0.96390  0.47150  0.97230  Biso   1.000  C
  C49      1.0000 0.09150  0.47190  0.97570  Biso   1.000  C
  C50      1.0000 0.09080  0.96340  0.97250  Biso   1.000  C
  C51      1.0000 0.38820  0.10940  0.61360  Biso   1.000  C
  C52      1.0000 0.44700  0.05240  0.55320  Biso   1.000  C
  C53      1.0000 0.47310  0.96270  0.59000  Biso   1.000  C
  C54      1.0000 0.47490  0.09010  0.46400  Biso   1.000  C
  C55      1.0000 0.38780  0.11060  0.89020  Biso   1.000  C
  C56      1.0000 0.44370  0.05490  0.94710  Biso   1.000  C
  C57      1.0000 0.47150  0.96390  0.97230  Biso   1.000  C
  C58      1.0000 0.47190  0.09150  0.97570  Biso   1.000  C
  C59      1.0000 0.96340  0.09080  0.97250  Biso   1.000  C
  C60      1.0000 0.89060  0.61180  0.38640  Biso   1.000  C
  C61      1.0000 0.94760  0.55300  0.44680  Biso   1.000  C
  C62      1.0000 0.03730  0.52690  0.41000  Biso   1.000  C
  C63      1.0000 0.90990  0.52510  0.53600  Biso   1.000  C
  C64      1.0000 0.88940  0.61220  0.10980  Biso   1.000  C
  C65      1.0000 0.94510  0.55630  0.05290  Biso   1.000  C
  C66      1.0000 0.03610  0.52850  0.02770  Biso   1.000  C
  C67      1.0000 0.90850  0.52810  0.02430  Biso   1.000  C
  C68      1.0000 0.90920  0.03660  0.02750  Biso   1.000  C
  C69      1.0000 0.61010  0.61010  0.39300  Biso   1.000  C
  C70      1.0000 0.55400  0.55400  0.44600  Biso   1.000  C
  C71      1.0000 0.52740  0.52740  0.40900  Biso   1.000  C
  C72      1.0000 0.52500  0.52500  0.53800  Biso   1.000  C
  C73      1.0000 0.88650  0.88650  0.11500  Biso   1.000  C
  C74      1.0000 0.94670  0.94670  0.05300  Biso   1.000  C
  C75      1.0000 0.38990  0.38990  0.60700  Biso   1.000  C
  C76      1.0000 0.44600  0.44600  0.55400  Biso   1.000  C
  C77      1.0000 0.47260  0.47260  0.59100  Biso   1.000  C
  C78      1.0000 0.47500  0.47500  0.46200  Biso   1.000  C
  C79      1.0000 0.11350  0.11350  0.88500  Biso   1.000  C
  C80      1.0000 0.05330  0.05330  0.94700  Biso   1.000  C
  C81      1.0000 0.63190  0.80490  0.42990  Biso   1.000  C
  C82      1.0000 0.63430  0.93110  0.30370  Biso   1.000  C
  C83      1.0000 0.63160  0.80380  0.13510  Biso   1.000  C
  C84      1.0000 0.63380  0.92960  0.13230  Biso   1.000  C
  C85      1.0000 0.92890  0.80350  0.13460  Biso   1.000  C
  C86      1.0000 0.19510  0.36810  0.57010  Biso   1.000  C
  C87      1.0000 0.06890  0.36570  0.69630  Biso   1.000  C
  C88      1.0000 0.19620  0.36840  0.86490  Biso   1.000  C
  C89      1.0000 0.07040  0.36620  0.86770  Biso   1.000  C
  C90      1.0000 0.19650  0.07110  0.86540  Biso   1.000  C
  C91      1.0000 0.36810  0.19510  0.57010  Biso   1.000  C
  C92      1.0000 0.36570  0.06890  0.69630  Biso   1.000  C
  C93      1.0000 0.36840  0.19620  0.86490  Biso   1.000  C
  C94      1.0000 0.36620  0.07040  0.86770  Biso   1.000  C
  C95      1.0000 0.07110  0.19650  0.86540  Biso   1.000  C
  C96      1.0000 0.80490  0.63190  0.42990  Biso   1.000  C
  C97      1.0000 0.93110  0.63430  0.30370  Biso   1.000  C
  C98      1.0000 0.80380  0.63160  0.13510  Biso   1.000  C
  C99      1.0000 0.92960  0.63380  0.13230  Biso   1.000  C
  C100     1.0000 0.80350  0.92890  0.13460  Biso   1.000  C
  C101     1.0000 0.74990  0.74990  0.25020  Biso   1.000  C
  C102     1.0000 0.63330  0.63330  0.42890  Biso   1.000  C
  C103     1.0000 0.63170  0.63170  0.30840  Biso   1.000  C
  C104     1.0000 0.25010  0.25010  0.74980  Biso   1.000  C
  C105     1.0000 0.36670  0.36670  0.57110  Biso   1.000  C
  C106     1.0000 0.36830  0.36830  0.69160  Biso   1.000  C
  O1       1.0000 0.99186  0.85186  0.67098  Biso   1.000  O
  O2       1.0000 0.16605  0.85185  0.49680  Biso   1.000  O
  O3       1.0000 0.99185  0.85185  0.49680  Biso   1.000  O
  O4       1.0000 0.99186  0.02604  0.49680  Biso   1.000  O
  O5       1.0000 0.58173  0.43798  0.90880  Biso   1.000  O
  O6       1.0000 0.40754  0.43799  0.08299  Biso   1.000  O
  O7       1.0000 0.58174  0.26380  0.08299  Biso   1.000  O
  O8       1.0000 0.58174  0.43799  0.08299  Biso   1.000  O
  O9       1.0000 0.13262  0.68998  0.85390  Biso   1.000  O
  O10      1.0000 0.35080  0.69002  0.63572  Biso   1.000  O
  O11      1.0000 0.83189  0.99077  0.33497  Biso   1.000  O
  O12      1.0000 0.83188  0.20891  0.33497  Biso   1.000  O
  O13      1.0000 0.83190  0.20892  0.63572  Biso   1.000  O
  O14      1.0000 0.83186  0.99074  0.85390  Biso   1.000  O
  O15      1.0000 0.13265  0.69001  0.33497  Biso   1.000  O
  O16      1.0000 0.35079  0.69001  0.33497  Biso   1.000  O
  O17      1.0000 0.35079  0.99077  0.33497  Biso   1.000  O
  O18      1.0000 0.13264  0.20891  0.33497  Biso   1.000  O
  O19      1.0000 0.83190  0.69002  0.63572  Biso   1.000  O
  O20      1.0000 0.83186  0.68998  0.85390  Biso   1.000  O
  O21      1.0000 0.44098  0.59986  0.72588  Biso   1.000  O
  O22      1.0000 0.22279  0.59982  0.94407  Biso   1.000  O
  O23      1.0000 0.74172  0.08093  0.24481  Biso   1.000  O
  O24      1.0000 0.74171  0.29907  0.24481  Biso   1.000  O
  O25      1.0000 0.74169  0.59982  0.94407  Biso   1.000  O
  O26      1.0000 0.74174  0.59986  0.72588  Biso   1.000  O
  O27      1.0000 0.44095  0.08093  0.24481  Biso   1.000  O
  O28      1.0000 0.22281  0.29907  0.24481  Biso   1.000  O
  O29      1.0000 0.22281  0.59983  0.24481  Biso   1.000  O
  O30      1.0000 0.44095  0.59983  0.24481  Biso   1.000  O
  O31      1.0000 0.74170  0.08092  0.94407  Biso   1.000  O
  O32      1.0000 0.74174  0.29910  0.72588  Biso   1.000  O
  O33      1.0000 0.19610  0.67173  0.82693  Biso   1.000  O
  O34      1.0000 0.32384  0.67177  0.69919  Biso   1.000  O
  O35      1.0000 0.81363  0.05424  0.31672  Biso   1.000  O
  O36      1.0000 0.81362  0.18194  0.31672  Biso   1.000  O
  O37      1.0000 0.81365  0.18196  0.69919  Biso   1.000  O
  O38      1.0000 0.81361  0.05422  0.82693  Biso   1.000  O
  O39      1.0000 0.19613  0.67175  0.31672  Biso   1.000  O
  O40      1.0000 0.32381  0.67175  0.31672  Biso   1.000  O
  O41      1.0000 0.32382  0.05424  0.31672  Biso   1.000  O
  O42      1.0000 0.19612  0.18194  0.31672  Biso   1.000  O
  O43      1.0000 0.81365  0.67177  0.69919  Biso   1.000  O
  O44      1.0000 0.81360  0.67173  0.82693  Biso   1.000  O
  O45      1.0000 0.37750  0.61811  0.75285  Biso   1.000  O
  O46      1.0000 0.24976  0.61807  0.88059  Biso   1.000  O
  O47      1.0000 0.75997  0.10790  0.26306  Biso   1.000  O
  O48      1.0000 0.75996  0.23560  0.26306  Biso   1.000  O
  O49      1.0000 0.75994  0.61807  0.88059  Biso   1.000  O
  O50      1.0000 0.75999  0.61811  0.75285  Biso   1.000  O
  O51      1.0000 0.37748  0.10790  0.26306  Biso   1.000  O
  O52      1.0000 0.24978  0.23559  0.26306  Biso   1.000  O
  O53      1.0000 0.24978  0.61809  0.26306  Biso   1.000  O
  O54      1.0000 0.37747  0.61809  0.26306  Biso   1.000  O
  O55      1.0000 0.75995  0.10788  0.88059  Biso   1.000  O
  O56      1.0000 0.75999  0.23562  0.75285  Biso   1.000  O
  O57      1.0000 0.17408  0.75675  0.67900  Biso   1.000  O
  O58      1.0000 0.23218  0.69865  0.73709  Biso   1.000  O
  O59      1.0000 0.89674  0.03405  0.40170  Biso   1.000  O
  O60      1.0000 0.83864  0.09215  0.34360  Biso   1.000  O
  O61      1.0000 0.89676  0.03407  0.67900  Biso   1.000  O
  O62      1.0000 0.83866  0.09217  0.73709  Biso   1.000  O
  O63      1.0000 0.17406  0.75673  0.40170  Biso   1.000  O
  O64      1.0000 0.23215  0.69863  0.34360  Biso   1.000  O
  O65      1.0000 0.17406  0.03405  0.40170  Biso   1.000  O
  O66      1.0000 0.23216  0.09215  0.34360  Biso   1.000  O
  O67      1.0000 0.89676  0.75675  0.67900  Biso   1.000  O
  O68      1.0000 0.83866  0.69865  0.73709  Biso   1.000  O
  O69      1.0000 0.39952  0.53309  0.90079  Biso   1.000  O
  O70      1.0000 0.34142  0.59119  0.84269  Biso   1.000  O
  O71      1.0000 0.67685  0.25579  0.17809  Biso   1.000  O
  O72      1.0000 0.73495  0.19769  0.23619  Biso   1.000  O
  O73      1.0000 0.67684  0.53309  0.90079  Biso   1.000  O
  O74      1.0000 0.73494  0.59119  0.84269  Biso   1.000  O
  O75      1.0000 0.39953  0.25579  0.17809  Biso   1.000  O
  O76      1.0000 0.34144  0.19769  0.23619  Biso   1.000  O
  O77      1.0000 0.39954  0.53311  0.17809  Biso   1.000  O
  O78      1.0000 0.34144  0.59121  0.23619  Biso   1.000  O
  O79      1.0000 0.67684  0.25577  0.90079  Biso   1.000  O
  O80      1.0000 0.73493  0.19767  0.84269  Biso   1.000  O
  O81      1.0000 0.03541  0.89540  0.54035  Biso   1.000  O
  O82      1.0000 0.53819  0.39444  0.03944  Biso   1.000  O
  O83      1.0000 0.09074  0.77907  0.71769  Biso   1.000  O
  O84      1.0000 0.21276  0.77907  0.59567  Biso   1.000  O
  O85      1.0000 0.91907  0.95072  0.42402  Biso   1.000  O
  O86      1.0000 0.91907  0.07274  0.42402  Biso   1.000  O
  O87      1.0000 0.91908  0.07275  0.59567  Biso   1.000  O
  O88      1.0000 0.91908  0.95073  0.71769  Biso   1.000  O
  O89      1.0000 0.09073  0.77906  0.42402  Biso   1.000  O
  O90      1.0000 0.21275  0.77906  0.42402  Biso   1.000  O
  O91      1.0000 0.21275  0.95072  0.42402  Biso   1.000  O
  O92      1.0000 0.09073  0.07274  0.42402  Biso   1.000  O
  O93      1.0000 0.91907  0.77907  0.59567  Biso   1.000  O
  O94      1.0000 0.91908  0.77907  0.71769  Biso   1.000  O
  O95      1.0000 0.48285  0.51077  0.86210  Biso   1.000  O
  O96      1.0000 0.36083  0.51077  0.98412  Biso   1.000  O
  O97      1.0000 0.65453  0.21709  0.15577  Biso   1.000  O
  O98      1.0000 0.65453  0.33912  0.15577  Biso   1.000  O
  O99      1.0000 0.65452  0.51077  0.98412  Biso   1.000  O
  O100     1.0000 0.65451  0.51077  0.86210  Biso   1.000  O
  O101     1.0000 0.48287  0.21709  0.15577  Biso   1.000  O
  O102     1.0000 0.36084  0.33912  0.15577  Biso   1.000  O
  O103     1.0000 0.36084  0.51078  0.15577  Biso   1.000  O
  O104     1.0000 0.48287  0.51078  0.15577  Biso   1.000  O
  O105     1.0000 0.65452  0.21709  0.98412  Biso   1.000  O
