data_image0
_cell_length_a       18.2519
_cell_length_b       18.2519
_cell_length_c       18.252
_cell_angle_alpha    60.0037
_cell_angle_beta     60.0037
_cell_angle_gamma    60.0005

_symmetry_space_group_name_H-M    "P 1"
_symmetry_int_tables_number       1

loop_
  _symmetry_equiv_pos_as_xyz
  'x, y, z'

loop_
  _atom_site_label
  _atom_site_occupancy
  _atom_site_fract_x
  _atom_site_fract_y
  _atom_site_fract_z
  _atom_site_thermal_displace_type
  _atom_site_B_iso_or_equiv
  _atom_site_type_symbol
  Zn1      1.0000 0.88088  0.70652  0.20631  Biso   1.000  Zn
  Zn2      1.0000 0.29348  0.11912  0.79369  Biso   1.000  Zn
  Zn3      1.0000 0.11912  0.29348  0.79369  Biso   1.000  Zn
  Zn4      1.0000 0.70652  0.88088  0.20631  Biso   1.000  Zn
  Zn5      1.0000 0.70633  0.70633  0.38080  Biso   1.000  Zn
  Zn6      1.0000 0.70645  0.70645  0.20610  Biso   1.000  Zn
  Zn7      1.0000 0.29367  0.29367  0.61920  Biso   1.000  Zn
  Zn8      1.0000 0.29355  0.29355  0.79390  Biso   1.000  Zn
  H1       1.0000 0.54380  0.06380  0.34770  Biso   1.000  H
  H2       1.0000 0.54070  0.84770  0.56160  Biso   1.000  H
  H3       1.0000 0.54740  0.06180  0.04520  Biso   1.000  H
  H4       1.0000 0.54690  0.84650  0.03990  Biso   1.000  H
  H5       1.0000 0.06290  0.84710  0.04700  Biso   1.000  H
  H6       1.0000 0.93620  0.45620  0.65230  Biso   1.000  H
  H7       1.0000 0.15230  0.45930  0.43840  Biso   1.000  H
  H8       1.0000 0.93820  0.45260  0.95480  Biso   1.000  H
  H9       1.0000 0.15350  0.45310  0.96010  Biso   1.000  H
  H10      1.0000 0.15290  0.93710  0.95300  Biso   1.000  H
  H11      1.0000 0.45620  0.93620  0.65230  Biso   1.000  H
  H12      1.0000 0.45930  0.15230  0.43840  Biso   1.000  H
  H13      1.0000 0.45260  0.93820  0.95480  Biso   1.000  H
  H14      1.0000 0.45310  0.15350  0.96010  Biso   1.000  H
  H15      1.0000 0.93710  0.15290  0.95300  Biso   1.000  H
  H16      1.0000 0.06380  0.54380  0.34770  Biso   1.000  H
  H17      1.0000 0.84770  0.54070  0.56160  Biso   1.000  H
  H18      1.0000 0.06180  0.54740  0.04520  Biso   1.000  H
  H19      1.0000 0.84650  0.54690  0.03990  Biso   1.000  H
  H20      1.0000 0.84710  0.06290  0.04700  Biso   1.000  H
  H21      1.0000 0.54510  0.54510  0.34700  Biso   1.000  H
  H22      1.0000 0.54240  0.54240  0.56550  Biso   1.000  H
  H23      1.0000 0.45490  0.45490  0.65300  Biso   1.000  H
  H24      1.0000 0.45760  0.45760  0.43450  Biso   1.000  H
  C1       1.0000 0.61180  0.89060  0.38640  Biso   1.000  C
  C2       1.0000 0.55300  0.94760  0.44680  Biso   1.000  C
  C3       1.0000 0.52690  0.03730  0.41000  Biso   1.000  C
  C4       1.0000 0.52510  0.90990  0.53600  Biso   1.000  C
  C5       1.0000 0.61220  0.88940  0.10980  Biso   1.000  C
  C6       1.0000 0.55630  0.94510  0.05290  Biso   1.000  C
  C7       1.0000 0.52850  0.03610  0.02770  Biso   1.000  C
  C8       1.0000 0.52810  0.90850  0.02430  Biso   1.000  C
  C9       1.0000 0.03660  0.90920  0.02750  Biso   1.000  C
  C10      1.0000 0.10940  0.38820  0.61360  Biso   1.000  C
  C11      1.0000 0.05240  0.44700  0.55320  Biso   1.000  C
  C12      1.0000 0.96270  0.47310  0.59000  Biso   1.000  C
  C13      1.0000 0.09010  0.47490  0.46400  Biso   1.000  C
  C14      1.0000 0.11060  0.38780  0.89020  Biso   1.000  C
  C15      1.0000 0.05490  0.44370  0.94710  Biso   1.000  C
  C16      1.0000 0.96390  0.47150  0.97230  Biso   1.000  C
  C17      1.0000 0.09150  0.47190  0.97570  Biso   1.000  C
  C18      1.0000 0.09080  0.96340  0.97250  Biso   1.000  C
  C19      1.0000 0.38820  0.10940  0.61360  Biso   1.000  C
  C20      1.0000 0.44700  0.05240  0.55320  Biso   1.000  C
  C21      1.0000 0.47310  0.96270  0.59000  Biso   1.000  C
  C22      1.0000 0.47490  0.09010  0.46400  Biso   1.000  C
  C23      1.0000 0.38780  0.11060  0.89020  Biso   1.000  C
  C24      1.0000 0.44370  0.05490  0.94710  Biso   1.000  C
  C25      1.0000 0.47150  0.96390  0.97230  Biso   1.000  C
  C26      1.0000 0.47190  0.09150  0.97570  Biso   1.000  C
  C27      1.0000 0.96340  0.09080  0.97250  Biso   1.000  C
  C28      1.0000 0.89060  0.61180  0.38640  Biso   1.000  C
  C29      1.0000 0.94760  0.55300  0.44680  Biso   1.000  C
  C30      1.0000 0.03730  0.52690  0.41000  Biso   1.000  C
  C31      1.0000 0.90990  0.52510  0.53600  Biso   1.000  C
  C32      1.0000 0.88940  0.61220  0.10980  Biso   1.000  C
  C33      1.0000 0.94510  0.55630  0.05290  Biso   1.000  C
  C34      1.0000 0.03610  0.52850  0.02770  Biso   1.000  C
  C35      1.0000 0.90850  0.52810  0.02430  Biso   1.000  C
  C36      1.0000 0.90920  0.03660  0.02750  Biso   1.000  C
  C37      1.0000 0.61010  0.61010  0.39300  Biso   1.000  C
  C38      1.0000 0.55400  0.55400  0.44600  Biso   1.000  C
  C39      1.0000 0.52740  0.52740  0.40900  Biso   1.000  C
  C40      1.0000 0.52500  0.52500  0.53800  Biso   1.000  C
  C41      1.0000 0.88650  0.88650  0.11500  Biso   1.000  C
  C42      1.0000 0.94670  0.94670  0.05300  Biso   1.000  C
  C43      1.0000 0.38990  0.38990  0.60700  Biso   1.000  C
  C44      1.0000 0.44600  0.44600  0.55400  Biso   1.000  C
  C45      1.0000 0.47260  0.47260  0.59100  Biso   1.000  C
  C46      1.0000 0.47500  0.47500  0.46200  Biso   1.000  C
  C47      1.0000 0.11350  0.11350  0.88500  Biso   1.000  C
  C48      1.0000 0.05330  0.05330  0.94700  Biso   1.000  C
  O1       1.0000 0.63190  0.80490  0.42990  Biso   1.000  O
  O2       1.0000 0.63430  0.93110  0.30370  Biso   1.000  O
  O3       1.0000 0.63160  0.80380  0.13510  Biso   1.000  O
  O4       1.0000 0.63380  0.92960  0.13230  Biso   1.000  O
  O5       1.0000 0.92890  0.80350  0.13460  Biso   1.000  O
  O6       1.0000 0.19510  0.36810  0.57010  Biso   1.000  O
  O7       1.0000 0.06890  0.36570  0.69630  Biso   1.000  O
  O8       1.0000 0.19620  0.36840  0.86490  Biso   1.000  O
  O9       1.0000 0.07040  0.36620  0.86770  Biso   1.000  O
  O10      1.0000 0.19650  0.07110  0.86540  Biso   1.000  O
  O11      1.0000 0.36810  0.19510  0.57010  Biso   1.000  O
  O12      1.0000 0.36570  0.06890  0.69630  Biso   1.000  O
  O13      1.0000 0.36840  0.19620  0.86490  Biso   1.000  O
  O14      1.0000 0.36620  0.07040  0.86770  Biso   1.000  O
  O15      1.0000 0.07110  0.19650  0.86540  Biso   1.000  O
  O16      1.0000 0.80490  0.63190  0.42990  Biso   1.000  O
  O17      1.0000 0.93110  0.63430  0.30370  Biso   1.000  O
  O18      1.0000 0.80380  0.63160  0.13510  Biso   1.000  O
  O19      1.0000 0.92960  0.63380  0.13230  Biso   1.000  O
  O20      1.0000 0.80350  0.92890  0.13460  Biso   1.000  O
  O21      1.0000 0.74990  0.74990  0.25020  Biso   1.000  O
  O22      1.0000 0.63330  0.63330  0.42890  Biso   1.000  O
  O23      1.0000 0.63170  0.63170  0.30840  Biso   1.000  O
  O24      1.0000 0.25010  0.25010  0.74980  Biso   1.000  O
  O25      1.0000 0.36670  0.36670  0.57110  Biso   1.000  O
  O26      1.0000 0.36830  0.36830  0.69160  Biso   1.000  O
  Zn9      1.0000 0.99186  0.85186  0.67098  Biso   1.000  Zn
  Zn10     1.0000 0.16597  0.85185  0.49688  Biso   1.000  Zn
  Zn11     1.0000 0.99185  0.85185  0.49688  Biso   1.000  Zn
  Zn12     1.0000 0.99186  0.02596  0.49688  Biso   1.000  Zn
  Zn13     1.0000 0.57757  0.43932  0.91030  Biso   1.000  Zn
  Zn14     1.0000 0.40346  0.43933  0.08440  Biso   1.000  Zn
  Zn15     1.0000 0.57757  0.26521  0.08440  Biso   1.000  Zn
  Zn16     1.0000 0.57758  0.43933  0.08440  Biso   1.000  Zn
  H25      1.0000 0.13279  0.68953  0.85465  Biso   1.000  H
  H26      1.0000 0.34872  0.68957  0.63871  Biso   1.000  H
  H27      1.0000 0.82868  0.99368  0.33460  Biso   1.000  H
  H28      1.0000 0.82867  0.20958  0.33460  Biso   1.000  H
  H29      1.0000 0.82869  0.20959  0.63871  Biso   1.000  H
  H30      1.0000 0.82866  0.99366  0.85465  Biso   1.000  H
  H31      1.0000 0.13281  0.68955  0.33460  Biso   1.000  H
  H32      1.0000 0.34870  0.68955  0.33460  Biso   1.000  H
  H33      1.0000 0.34870  0.99368  0.33460  Biso   1.000  H
  H34      1.0000 0.13281  0.20958  0.33460  Biso   1.000  H
  H35      1.0000 0.82870  0.68957  0.63871  Biso   1.000  H
  H36      1.0000 0.82865  0.68953  0.85465  Biso   1.000  H
  H37      1.0000 0.43665  0.60165  0.72663  Biso   1.000  H
  H38      1.0000 0.22071  0.60161  0.94257  Biso   1.000  H
  H39      1.0000 0.74076  0.08160  0.24668  Biso   1.000  H
  H40      1.0000 0.74075  0.29749  0.24668  Biso   1.000  H
  H41      1.0000 0.74073  0.60161  0.94257  Biso   1.000  H
  H42      1.0000 0.74078  0.60165  0.72663  Biso   1.000  H
  H43      1.0000 0.43662  0.08160  0.24668  Biso   1.000  H
  H44      1.0000 0.22073  0.29749  0.24668  Biso   1.000  H
  H45      1.0000 0.22073  0.60162  0.24668  Biso   1.000  H
  H46      1.0000 0.43662  0.60162  0.24668  Biso   1.000  H
  H47      1.0000 0.74074  0.08159  0.94257  Biso   1.000  H
  H48      1.0000 0.74078  0.29752  0.72663  Biso   1.000  H
  C49      1.0000 0.19473  0.67194  0.82787  Biso   1.000  C
  C50      1.0000 0.32195  0.67199  0.70066  Biso   1.000  C
  C51      1.0000 0.81110  0.05563  0.31701  Biso   1.000  C
  C52      1.0000 0.81109  0.18280  0.31701  Biso   1.000  C
  C53      1.0000 0.81111  0.18282  0.70065  Biso   1.000  C
  C54      1.0000 0.81107  0.05560  0.82787  Biso   1.000  C
  C55      1.0000 0.19476  0.67197  0.31701  Biso   1.000  C
  C56      1.0000 0.32192  0.67197  0.31701  Biso   1.000  C
  C57      1.0000 0.32193  0.05563  0.31701  Biso   1.000  C
  C58      1.0000 0.19475  0.18280  0.31701  Biso   1.000  C
  C59      1.0000 0.81112  0.67199  0.70065  Biso   1.000  C
  C60      1.0000 0.81107  0.67194  0.82787  Biso   1.000  C
  C61      1.0000 0.37470  0.61924  0.75341  Biso   1.000  C
  C62      1.0000 0.24749  0.61919  0.88062  Biso   1.000  C
  C63      1.0000 0.75834  0.10838  0.26426  Biso   1.000  C
  C64      1.0000 0.75833  0.23555  0.26426  Biso   1.000  C
  C65      1.0000 0.75831  0.61919  0.88062  Biso   1.000  C
  C66      1.0000 0.75836  0.61924  0.75341  Biso   1.000  C
  C67      1.0000 0.37468  0.10838  0.26426  Biso   1.000  C
  C68      1.0000 0.24750  0.23555  0.26426  Biso   1.000  C
  C69      1.0000 0.24751  0.61921  0.26426  Biso   1.000  C
  C70      1.0000 0.37467  0.61921  0.26426  Biso   1.000  C
  C71      1.0000 0.75832  0.10836  0.88062  Biso   1.000  C
  C72      1.0000 0.75836  0.23557  0.75341  Biso   1.000  C
  C73      1.0000 0.17387  0.75691  0.67888  Biso   1.000  C
  C74      1.0000 0.23153  0.69926  0.73652  Biso   1.000  C
  C75      1.0000 0.89690  0.03385  0.40194  Biso   1.000  C
  C76      1.0000 0.83925  0.09150  0.34429  Biso   1.000  C
  C77      1.0000 0.89692  0.03387  0.67888  Biso   1.000  C
  C78      1.0000 0.83927  0.09152  0.73652  Biso   1.000  C
  C79      1.0000 0.17386  0.75690  0.40194  Biso   1.000  C
  C80      1.0000 0.23150  0.69924  0.34429  Biso   1.000  C
  C81      1.0000 0.17386  0.03385  0.40194  Biso   1.000  C
  C82      1.0000 0.23151  0.09150  0.34429  Biso   1.000  C
  C83      1.0000 0.89692  0.75691  0.67888  Biso   1.000  C
  C84      1.0000 0.83927  0.69926  0.73652  Biso   1.000  C
  C85      1.0000 0.39556  0.53427  0.90240  Biso   1.000  C
  C86      1.0000 0.33790  0.59191  0.84476  Biso   1.000  C
  C87      1.0000 0.67253  0.25732  0.17934  Biso   1.000  C
  C88      1.0000 0.73018  0.19968  0.23699  Biso   1.000  C
  C89      1.0000 0.67251  0.53427  0.90240  Biso   1.000  C
  C90      1.0000 0.73016  0.59191  0.84476  Biso   1.000  C
  C91      1.0000 0.39557  0.25732  0.17934  Biso   1.000  C
  C92      1.0000 0.33792  0.19968  0.23699  Biso   1.000  C
  C93      1.0000 0.39557  0.53428  0.17934  Biso   1.000  C
  C94      1.0000 0.33793  0.59193  0.23699  Biso   1.000  C
  C95      1.0000 0.67251  0.25731  0.90240  Biso   1.000  C
  C96      1.0000 0.73016  0.19966  0.84476  Biso   1.000  C
  O27      1.0000 0.03539  0.89538  0.54041  Biso   1.000  O
  O28      1.0000 0.53404  0.39580  0.04087  Biso   1.000  O
  O29      1.0000 0.09068  0.77944  0.71701  Biso   1.000  O
  O30      1.0000 0.21201  0.77944  0.59568  Biso   1.000  O
  O31      1.0000 0.91944  0.95066  0.42446  Biso   1.000  O
  O32      1.0000 0.91944  0.07199  0.42446  Biso   1.000  O
  O33      1.0000 0.91945  0.07200  0.59568  Biso   1.000  O
  O34      1.0000 0.91945  0.95067  0.71701  Biso   1.000  O
  O35      1.0000 0.09066  0.77943  0.42446  Biso   1.000  O
  O36      1.0000 0.21200  0.77943  0.42446  Biso   1.000  O
  O37      1.0000 0.21200  0.95066  0.42446  Biso   1.000  O
  O38      1.0000 0.09067  0.07199  0.42446  Biso   1.000  O
  O39      1.0000 0.91944  0.77944  0.59568  Biso   1.000  O
  O40      1.0000 0.91945  0.77944  0.71701  Biso   1.000  O
  O41      1.0000 0.47875  0.51173  0.86427  Biso   1.000  O
  O42      1.0000 0.35742  0.51174  0.98560  Biso   1.000  O
  O43      1.0000 0.64999  0.21919  0.15681  Biso   1.000  O
  O44      1.0000 0.65000  0.34052  0.15681  Biso   1.000  O
  O45      1.0000 0.64999  0.51174  0.98560  Biso   1.000  O
  O46      1.0000 0.64998  0.51173  0.86427  Biso   1.000  O
  O47      1.0000 0.47876  0.21919  0.15681  Biso   1.000  O
  O48      1.0000 0.35743  0.34052  0.15681  Biso   1.000  O
  O49      1.0000 0.35743  0.51175  0.15681  Biso   1.000  O
  O50      1.0000 0.47877  0.51175  0.15681  Biso   1.000  O
  O51      1.0000 0.64998  0.21918  0.98560  Biso   1.000  O
