data_image0
_cell_length_a       18.1065
_cell_length_b       18.1065
_cell_length_c       18.1065
_cell_angle_alpha    60
_cell_angle_beta     60
_cell_angle_gamma    60

_symmetry_space_group_name_H-M    "P 1"
_symmetry_int_tables_number       1

loop_
  _symmetry_equiv_pos_as_xyz
  'x, y, z'

loop_
  _atom_site_label
  _atom_site_occupancy
  _atom_site_fract_x
  _atom_site_fract_y
  _atom_site_fract_z
  _atom_site_thermal_displace_type
  _atom_site_B_iso_or_equiv
  _atom_site_type_symbol
  Zn1      1.0000 0.79354  0.61938  0.79354  Biso   1.000  Zn
  Zn2      1.0000 0.61938  0.79354  0.79354  Biso   1.000  Zn
  Zn3      1.0000 0.20646  0.20646  0.38062  Biso   1.000  Zn
  Zn4      1.0000 0.79354  0.79354  0.79354  Biso   1.000  Zn
  Zn5      1.0000 0.20646  0.38062  0.20646  Biso   1.000  Zn
  Zn6      1.0000 0.20646  0.20646  0.20646  Biso   1.000  Zn
  Zn7      1.0000 0.38062  0.20646  0.20646  Biso   1.000  Zn
  Zn8      1.0000 0.79354  0.79354  0.61938  Biso   1.000  Zn
  C1       1.0000 0.41290  0.53690  0.02510  Biso   1.000  C
  C2       1.0000 0.97490  0.46310  0.97490  Biso   1.000  C
  C3       1.0000 0.53690  0.02510  0.02510  Biso   1.000  C
  C4       1.0000 0.94610  0.55390  0.55390  Biso   1.000  C
  C5       1.0000 0.41290  0.02510  0.53690  Biso   1.000  C
  C6       1.0000 0.55390  0.55390  0.94610  Biso   1.000  C
  C7       1.0000 0.38730  0.38730  0.11270  Biso   1.000  C
  C8       1.0000 0.46310  0.58710  0.97490  Biso   1.000  C
  C9       1.0000 0.58710  0.46310  0.97490  Biso   1.000  C
  C10      1.0000 0.94610  0.94610  0.55390  Biso   1.000  C
  C11      1.0000 0.94610  0.55390  0.94610  Biso   1.000  C
  C12      1.0000 0.02510  0.53690  0.41290  Biso   1.000  C
  C13      1.0000 0.02510  0.41290  0.02510  Biso   1.000  C
  C14      1.0000 0.88730  0.61270  0.88730  Biso   1.000  C
  C15      1.0000 0.61270  0.88730  0.61270  Biso   1.000  C
  C16      1.0000 0.38730  0.11270  0.11270  Biso   1.000  C
  C17      1.0000 0.61270  0.88730  0.88730  Biso   1.000  C
  C18      1.0000 0.61270  0.61270  0.88730  Biso   1.000  C
  C19      1.0000 0.53690  0.41290  0.02510  Biso   1.000  C
  C20      1.0000 0.58710  0.97490  0.97490  Biso   1.000  C
  C21      1.0000 0.11270  0.38730  0.11270  Biso   1.000  C
  C22      1.0000 0.46310  0.97490  0.97490  Biso   1.000  C
  C23      1.0000 0.02510  0.41290  0.53690  Biso   1.000  C
  C24      1.0000 0.88730  0.88730  0.61270  Biso   1.000  C
  C25      1.0000 0.46310  0.97490  0.58710  Biso   1.000  C
  C26      1.0000 0.38730  0.11270  0.38730  Biso   1.000  C
  C27      1.0000 0.05390  0.44610  0.05390  Biso   1.000  C
  C28      1.0000 0.41290  0.02510  0.02510  Biso   1.000  C
  C29      1.0000 0.97490  0.97490  0.46310  Biso   1.000  C
  C30      1.0000 0.88730  0.61270  0.61270  Biso   1.000  C
  C31      1.0000 0.53690  0.02510  0.41290  Biso   1.000  C
  C32      1.0000 0.97490  0.97490  0.58710  Biso   1.000  C
  C33      1.0000 0.44610  0.05390  0.44610  Biso   1.000  C
  C34      1.0000 0.02510  0.53690  0.02510  Biso   1.000  C
  C35      1.0000 0.02510  0.02510  0.41290  Biso   1.000  C
  C36      1.0000 0.11270  0.38730  0.38730  Biso   1.000  C
  C37      1.0000 0.02510  0.02510  0.53690  Biso   1.000  C
  C38      1.0000 0.97490  0.46310  0.58710  Biso   1.000  C
  C39      1.0000 0.97490  0.58710  0.46310  Biso   1.000  C
  C40      1.0000 0.55390  0.94610  0.94610  Biso   1.000  C
  C41      1.0000 0.97490  0.58710  0.97490  Biso   1.000  C
  C42      1.0000 0.44610  0.05390  0.05390  Biso   1.000  C
  C43      1.0000 0.05390  0.44610  0.44610  Biso   1.000  C
  C44      1.0000 0.11270  0.11270  0.38730  Biso   1.000  C
  C45      1.0000 0.05390  0.05390  0.44610  Biso   1.000  C
  C46      1.0000 0.55390  0.94610  0.55390  Biso   1.000  C
  C47      1.0000 0.58710  0.97490  0.46310  Biso   1.000  C
  C48      1.0000 0.44610  0.44610  0.05390  Biso   1.000  C
  O1       1.0000 0.13360  0.42978  0.13360  Biso   1.000  O
  O2       1.0000 0.13360  0.42978  0.30302  Biso   1.000  O
  O3       1.0000 0.86640  0.57022  0.86640  Biso   1.000  O
  O4       1.0000 0.30302  0.13360  0.42978  Biso   1.000  O
  O5       1.0000 0.13360  0.13360  0.42978  Biso   1.000  O
  O6       1.0000 0.86640  0.57022  0.69698  Biso   1.000  O
  O7       1.0000 0.69698  0.86640  0.57022  Biso   1.000  O
  O8       1.0000 0.86640  0.86640  0.57022  Biso   1.000  O
  O9       1.0000 0.13360  0.30302  0.13360  Biso   1.000  O
  O10      1.0000 0.42978  0.30302  0.13360  Biso   1.000  O
  O11      1.0000 0.86640  0.69698  0.86640  Biso   1.000  O
  O12      1.0000 0.13360  0.13360  0.30302  Biso   1.000  O
  O13      1.0000 0.69698  0.86640  0.86640  Biso   1.000  O
  O14      1.0000 0.57022  0.69698  0.86640  Biso   1.000  O
  O15      1.0000 0.57022  0.86640  0.86640  Biso   1.000  O
  O16      1.0000 0.13360  0.30302  0.42978  Biso   1.000  O
  O17      1.0000 0.25000  0.25000  0.25000  Biso   1.000  O
  O18      1.0000 0.30302  0.42978  0.13360  Biso   1.000  O
  O19      1.0000 0.69698  0.57022  0.86640  Biso   1.000  O
  O20      1.0000 0.57022  0.86640  0.69698  Biso   1.000  O
  O21      1.0000 0.42978  0.13360  0.13360  Biso   1.000  O
  O22      1.0000 0.86640  0.86640  0.69698  Biso   1.000  O
  O23      1.0000 0.75000  0.75000  0.75000  Biso   1.000  O
  O24      1.0000 0.30302  0.13360  0.13360  Biso   1.000  O
  O25      1.0000 0.86640  0.69698  0.57022  Biso   1.000  O
  O26      1.0000 0.42978  0.13360  0.30302  Biso   1.000  O
  H1       1.0000 0.33611  0.56917  0.04736  Biso   1.000  H
  H2       1.0000 0.95490  0.42685  0.95490  Biso   1.000  H
  H3       1.0000 0.56917  0.04736  0.04736  Biso   1.000  H
  H4       1.0000 0.33611  0.04736  0.56917  Biso   1.000  H
  H5       1.0000 0.43083  0.66389  0.95264  Biso   1.000  H
  H6       1.0000 0.66335  0.42685  0.95490  Biso   1.000  H
  H7       1.0000 0.04736  0.56917  0.33611  Biso   1.000  H
  H8       1.0000 0.04736  0.33611  0.04736  Biso   1.000  H
  H9       1.0000 0.56917  0.33611  0.04736  Biso   1.000  H
  H10      1.0000 0.66389  0.95264  0.95264  Biso   1.000  H
  H11      1.0000 0.43083  0.95264  0.95264  Biso   1.000  H
  H12      1.0000 0.04736  0.33611  0.56917  Biso   1.000  H
  H13      1.0000 0.43083  0.95264  0.66389  Biso   1.000  H
  H14      1.0000 0.33611  0.04736  0.04736  Biso   1.000  H
  H15      1.0000 0.95490  0.95490  0.42685  Biso   1.000  H
  H16      1.0000 0.57315  0.04510  0.33665  Biso   1.000  H
  H17      1.0000 0.95490  0.95490  0.66335  Biso   1.000  H
  H18      1.0000 0.04510  0.57315  0.04510  Biso   1.000  H
  H19      1.0000 0.04736  0.04736  0.33611  Biso   1.000  H
  H20      1.0000 0.04736  0.04736  0.56917  Biso   1.000  H
  H21      1.0000 0.95490  0.42685  0.66335  Biso   1.000  H
  H22      1.0000 0.95264  0.66389  0.43083  Biso   1.000  H
  H23      1.0000 0.95490  0.66335  0.95490  Biso   1.000  H
  H24      1.0000 0.66389  0.95264  0.43083  Biso   1.000  H
  Zn9      1.0000 0.48167  0.34848  0.67641  Biso   1.000  Zn
  Zn10     1.0000 0.65726  0.34848  0.50082  Biso   1.000  Zn
  Zn11     1.0000 0.48167  0.34848  0.50082  Biso   1.000  Zn
  Zn12     1.0000 0.48167  0.52407  0.50082  Biso   1.000  Zn
  Zn13     1.0000 0.08343  0.93162  0.90837  Biso   1.000  Zn
  Zn14     1.0000 0.90784  0.93162  0.08396  Biso   1.000  Zn
  Zn15     1.0000 0.08343  0.75603  0.08396  Biso   1.000  Zn
  Zn16     1.0000 0.08343  0.93162  0.08396  Biso   1.000  Zn
  H25      1.0000 0.63207  0.18517  0.85263  Biso   1.000  H
  H26      1.0000 0.84279  0.18517  0.64191  Biso   1.000  H
  H27      1.0000 0.32767  0.48958  0.33751  Biso   1.000  H
  H28      1.0000 0.32767  0.70029  0.33751  Biso   1.000  H
  H29      1.0000 0.32767  0.70029  0.64191  Biso   1.000  H
  H30      1.0000 0.32767  0.48958  0.85263  Biso   1.000  H
  H31      1.0000 0.63207  0.18517  0.33751  Biso   1.000  H
  H32      1.0000 0.84279  0.18517  0.33751  Biso   1.000  H
  H33      1.0000 0.84279  0.48958  0.33751  Biso   1.000  H
  H34      1.0000 0.63207  0.70029  0.33751  Biso   1.000  H
  H35      1.0000 0.32767  0.18517  0.64191  Biso   1.000  H
  H36      1.0000 0.32767  0.18517  0.85263  Biso   1.000  H
  H37      1.0000 0.93302  0.09493  0.73215  Biso   1.000  H
  H38      1.0000 0.72231  0.09493  0.94286  Biso   1.000  H
  H39      1.0000 0.23743  0.57981  0.24727  Biso   1.000  H
  H40      1.0000 0.23743  0.79053  0.24727  Biso   1.000  H
  H41      1.0000 0.23743  0.09493  0.94286  Biso   1.000  H
  H42      1.0000 0.23743  0.09493  0.73215  Biso   1.000  H
  H43      1.0000 0.93302  0.57981  0.24727  Biso   1.000  H
  H44      1.0000 0.72231  0.79053  0.24727  Biso   1.000  H
  H45      1.0000 0.72231  0.09493  0.24727  Biso   1.000  H
  H46      1.0000 0.93302  0.09493  0.24727  Biso   1.000  H
  H47      1.0000 0.23743  0.57981  0.94286  Biso   1.000  H
  H48      1.0000 0.23743  0.79053  0.73215  Biso   1.000  H
  C49      1.0000 0.69529  0.16699  0.82577  Biso   1.000  C
  C50      1.0000 0.81593  0.16699  0.70513  Biso   1.000  C
  C51      1.0000 0.30949  0.55279  0.31933  Biso   1.000  C
  C52      1.0000 0.30949  0.67344  0.31933  Biso   1.000  C
  C53      1.0000 0.30949  0.67344  0.70513  Biso   1.000  C
  C54      1.0000 0.30949  0.55279  0.82577  Biso   1.000  C
  C55      1.0000 0.69529  0.16699  0.31933  Biso   1.000  C
  C56      1.0000 0.81593  0.16699  0.31933  Biso   1.000  C
  C57      1.0000 0.81593  0.55279  0.31933  Biso   1.000  C
  C58      1.0000 0.69529  0.67344  0.31933  Biso   1.000  C
  C59      1.0000 0.30949  0.16699  0.70513  Biso   1.000  C
  C60      1.0000 0.30949  0.16699  0.82577  Biso   1.000  C
  C61      1.0000 0.86981  0.11311  0.75900  Biso   1.000  C
  C62      1.0000 0.74916  0.11311  0.87965  Biso   1.000  C
  C63      1.0000 0.25561  0.60667  0.26545  Biso   1.000  C
  C64      1.0000 0.25561  0.72731  0.26545  Biso   1.000  C
  C65      1.0000 0.25561  0.11311  0.87965  Biso   1.000  C
  C66      1.0000 0.25561  0.11311  0.75900  Biso   1.000  C
  C67      1.0000 0.86981  0.60667  0.26545  Biso   1.000  C
  C68      1.0000 0.74916  0.72731  0.26545  Biso   1.000  C
  C69      1.0000 0.74916  0.11311  0.26545  Biso   1.000  C
  C70      1.0000 0.86981  0.11311  0.26545  Biso   1.000  C
  C71      1.0000 0.25561  0.60667  0.87965  Biso   1.000  C
  C72      1.0000 0.25561  0.72731  0.75900  Biso   1.000  C
  C73      1.0000 0.66539  0.25256  0.68454  Biso   1.000  C
  C74      1.0000 0.72364  0.19430  0.74279  Biso   1.000  C
  C75      1.0000 0.38575  0.53220  0.40490  Biso   1.000  C
  C76      1.0000 0.32749  0.59046  0.34664  Biso   1.000  C
  C77      1.0000 0.38575  0.53220  0.68454  Biso   1.000  C
  C78      1.0000 0.32749  0.59046  0.74279  Biso   1.000  C
  C79      1.0000 0.66539  0.25256  0.40490  Biso   1.000  C
  C80      1.0000 0.72364  0.19430  0.34664  Biso   1.000  C
  C81      1.0000 0.66539  0.53220  0.40490  Biso   1.000  C
  C82      1.0000 0.72364  0.59046  0.34664  Biso   1.000  C
  C83      1.0000 0.38575  0.25256  0.68454  Biso   1.000  C
  C84      1.0000 0.32749  0.19430  0.74279  Biso   1.000  C
  C85      1.0000 0.89971  0.02754  0.90024  Biso   1.000  C
  C86      1.0000 0.84146  0.08580  0.84198  Biso   1.000  C
  C87      1.0000 0.17935  0.74790  0.17988  Biso   1.000  C
  C88      1.0000 0.23761  0.68965  0.23814  Biso   1.000  C
  C89      1.0000 0.17935  0.02754  0.90024  Biso   1.000  C
  C90      1.0000 0.23761  0.08580  0.84198  Biso   1.000  C
  C91      1.0000 0.89971  0.74790  0.17988  Biso   1.000  C
  C92      1.0000 0.84146  0.68965  0.23814  Biso   1.000  C
  C93      1.0000 0.89971  0.02754  0.17988  Biso   1.000  C
  C94      1.0000 0.84146  0.08580  0.23814  Biso   1.000  C
  C95      1.0000 0.17935  0.74790  0.90024  Biso   1.000  C
  C96      1.0000 0.23761  0.68965  0.84198  Biso   1.000  C
  O27      1.0000 0.52557  0.39238  0.54472  Biso   1.000  O
  O28      1.0000 0.03953  0.88772  0.04006  Biso   1.000  O
  O29      1.0000 0.58125  0.27521  0.72337  Biso   1.000  O
  O30      1.0000 0.70422  0.27521  0.60040  Biso   1.000  O
  O31      1.0000 0.40839  0.44806  0.42755  Biso   1.000  O
  O32      1.0000 0.40839  0.57104  0.42755  Biso   1.000  O
  O33      1.0000 0.40839  0.57104  0.60040  Biso   1.000  O
  O34      1.0000 0.40839  0.44806  0.72337  Biso   1.000  O
  O35      1.0000 0.58125  0.27521  0.42755  Biso   1.000  O
  O36      1.0000 0.70422  0.27521  0.42755  Biso   1.000  O
  O37      1.0000 0.70422  0.44806  0.42755  Biso   1.000  O
  O38      1.0000 0.58125  0.57104  0.42755  Biso   1.000  O
  O39      1.0000 0.40839  0.27521  0.60040  Biso   1.000  O
  O40      1.0000 0.40839  0.27521  0.72337  Biso   1.000  O
  O41      1.0000 0.98385  0.00489  0.86140  Biso   1.000  O
  O42      1.0000 0.86087  0.00489  0.98438  Biso   1.000  O
  O43      1.0000 0.15670  0.70906  0.15723  Biso   1.000  O
  O44      1.0000 0.15670  0.83204  0.15723  Biso   1.000  O
  O45      1.0000 0.15670  0.00489  0.98438  Biso   1.000  O
  O46      1.0000 0.15670  0.00489  0.86140  Biso   1.000  O
  O47      1.0000 0.98385  0.70906  0.15723  Biso   1.000  O
  O48      1.0000 0.86087  0.83204  0.15723  Biso   1.000  O
  O49      1.0000 0.86087  0.00489  0.15723  Biso   1.000  O
  O50      1.0000 0.98385  0.00489  0.15723  Biso   1.000  O
  O51      1.0000 0.15670  0.70906  0.98438  Biso   1.000  O
