data_image0
_cell_length_a       18.1065
_cell_length_b       18.1065
_cell_length_c       18.1065
_cell_angle_alpha    60
_cell_angle_beta     60
_cell_angle_gamma    60

_symmetry_space_group_name_H-M    "P 1"
_symmetry_int_tables_number       1

loop_
  _symmetry_equiv_pos_as_xyz
  'x, y, z'

loop_
  _atom_site_label
  _atom_site_occupancy
  _atom_site_fract_x
  _atom_site_fract_y
  _atom_site_fract_z
  _atom_site_thermal_displace_type
  _atom_site_B_iso_or_equiv
  _atom_site_type_symbol
  C1       1.0000 0.79354  0.61938  0.79354  Biso   1.000  C
  C2       1.0000 0.61938  0.79354  0.79354  Biso   1.000  C
  C3       1.0000 0.20646  0.20646  0.38062  Biso   1.000  C
  C4       1.0000 0.79354  0.79354  0.79354  Biso   1.000  C
  C5       1.0000 0.20646  0.38062  0.20646  Biso   1.000  C
  C6       1.0000 0.20646  0.20646  0.20646  Biso   1.000  C
  C7       1.0000 0.38062  0.20646  0.20646  Biso   1.000  C
  C8       1.0000 0.79354  0.79354  0.61938  Biso   1.000  C
  C9       1.0000 0.41290  0.53690  0.02510  Biso   1.000  C
  C10      1.0000 0.97490  0.46310  0.97490  Biso   1.000  C
  C11      1.0000 0.53690  0.02510  0.02510  Biso   1.000  C
  C12      1.0000 0.94610  0.55390  0.55390  Biso   1.000  C
  C13      1.0000 0.41290  0.02510  0.53690  Biso   1.000  C
  C14      1.0000 0.55390  0.55390  0.94610  Biso   1.000  C
  C15      1.0000 0.38730  0.38730  0.11270  Biso   1.000  C
  C16      1.0000 0.46310  0.58710  0.97490  Biso   1.000  C
  C17      1.0000 0.58710  0.46310  0.97490  Biso   1.000  C
  C18      1.0000 0.94610  0.94610  0.55390  Biso   1.000  C
  C19      1.0000 0.94610  0.55390  0.94610  Biso   1.000  C
  C20      1.0000 0.02510  0.53690  0.41290  Biso   1.000  C
  C21      1.0000 0.02510  0.41290  0.02510  Biso   1.000  C
  C22      1.0000 0.88730  0.61270  0.88730  Biso   1.000  C
  C23      1.0000 0.61270  0.88730  0.61270  Biso   1.000  C
  C24      1.0000 0.38730  0.11270  0.11270  Biso   1.000  C
  C25      1.0000 0.61270  0.88730  0.88730  Biso   1.000  C
  C26      1.0000 0.61270  0.61270  0.88730  Biso   1.000  C
  C27      1.0000 0.53690  0.41290  0.02510  Biso   1.000  C
  C28      1.0000 0.58710  0.97490  0.97490  Biso   1.000  C
  C29      1.0000 0.11270  0.38730  0.11270  Biso   1.000  C
  C30      1.0000 0.46310  0.97490  0.97490  Biso   1.000  C
  C31      1.0000 0.02510  0.41290  0.53690  Biso   1.000  C
  C32      1.0000 0.88730  0.88730  0.61270  Biso   1.000  C
  C33      1.0000 0.46310  0.97490  0.58710  Biso   1.000  C
  C34      1.0000 0.38730  0.11270  0.38730  Biso   1.000  C
  C35      1.0000 0.05390  0.44610  0.05390  Biso   1.000  C
  C36      1.0000 0.41290  0.02510  0.02510  Biso   1.000  C
  C37      1.0000 0.97490  0.97490  0.46310  Biso   1.000  C
  C38      1.0000 0.88730  0.61270  0.61270  Biso   1.000  C
  C39      1.0000 0.53690  0.02510  0.41290  Biso   1.000  C
  C40      1.0000 0.97490  0.97490  0.58710  Biso   1.000  C
  C41      1.0000 0.44610  0.05390  0.44610  Biso   1.000  C
  C42      1.0000 0.02510  0.53690  0.02510  Biso   1.000  C
  C43      1.0000 0.02510  0.02510  0.41290  Biso   1.000  C
  C44      1.0000 0.11270  0.38730  0.38730  Biso   1.000  C
  C45      1.0000 0.02510  0.02510  0.53690  Biso   1.000  C
  C46      1.0000 0.97490  0.46310  0.58710  Biso   1.000  C
  C47      1.0000 0.97490  0.58710  0.46310  Biso   1.000  C
  C48      1.0000 0.55390  0.94610  0.94610  Biso   1.000  C
  C49      1.0000 0.97490  0.58710  0.97490  Biso   1.000  C
  C50      1.0000 0.44610  0.05390  0.05390  Biso   1.000  C
  C51      1.0000 0.05390  0.44610  0.44610  Biso   1.000  C
  C52      1.0000 0.11270  0.11270  0.38730  Biso   1.000  C
  C53      1.0000 0.05390  0.05390  0.44610  Biso   1.000  C
  C54      1.0000 0.55390  0.94610  0.55390  Biso   1.000  C
  C55      1.0000 0.58710  0.97490  0.46310  Biso   1.000  C
  C56      1.0000 0.44610  0.44610  0.05390  Biso   1.000  C
  C57      1.0000 0.13360  0.42978  0.13360  Biso   1.000  C
  C58      1.0000 0.13360  0.42978  0.30302  Biso   1.000  C
  C59      1.0000 0.86640  0.57022  0.86640  Biso   1.000  C
  C60      1.0000 0.30302  0.13360  0.42978  Biso   1.000  C
  C61      1.0000 0.13360  0.13360  0.42978  Biso   1.000  C
  C62      1.0000 0.86640  0.57022  0.69698  Biso   1.000  C
  C63      1.0000 0.69698  0.86640  0.57022  Biso   1.000  C
  C64      1.0000 0.86640  0.86640  0.57022  Biso   1.000  C
  C65      1.0000 0.13360  0.30302  0.13360  Biso   1.000  C
  C66      1.0000 0.42978  0.30302  0.13360  Biso   1.000  C
  C67      1.0000 0.86640  0.69698  0.86640  Biso   1.000  C
  C68      1.0000 0.13360  0.13360  0.30302  Biso   1.000  C
  C69      1.0000 0.69698  0.86640  0.86640  Biso   1.000  C
  C70      1.0000 0.57022  0.69698  0.86640  Biso   1.000  C
  C71      1.0000 0.57022  0.86640  0.86640  Biso   1.000  C
  C72      1.0000 0.13360  0.30302  0.42978  Biso   1.000  C
  C73      1.0000 0.25000  0.25000  0.25000  Biso   1.000  C
  C74      1.0000 0.30302  0.42978  0.13360  Biso   1.000  C
  C75      1.0000 0.69698  0.57022  0.86640  Biso   1.000  C
  C76      1.0000 0.57022  0.86640  0.69698  Biso   1.000  C
  C77      1.0000 0.42978  0.13360  0.13360  Biso   1.000  C
  C78      1.0000 0.86640  0.86640  0.69698  Biso   1.000  C
  C79      1.0000 0.75000  0.75000  0.75000  Biso   1.000  C
  C80      1.0000 0.30302  0.13360  0.13360  Biso   1.000  C
  C81      1.0000 0.86640  0.69698  0.57022  Biso   1.000  C
  C82      1.0000 0.42978  0.13360  0.30302  Biso   1.000  C
  C83      1.0000 0.33611  0.56917  0.04736  Biso   1.000  C
  C84      1.0000 0.95490  0.42685  0.95490  Biso   1.000  C
  C85      1.0000 0.56917  0.04736  0.04736  Biso   1.000  C
  C86      1.0000 0.33611  0.04736  0.56917  Biso   1.000  C
  C87      1.0000 0.43083  0.66389  0.95264  Biso   1.000  C
  C88      1.0000 0.66335  0.42685  0.95490  Biso   1.000  C
  C89      1.0000 0.04736  0.56917  0.33611  Biso   1.000  C
  C90      1.0000 0.04736  0.33611  0.04736  Biso   1.000  C
  C91      1.0000 0.56917  0.33611  0.04736  Biso   1.000  C
  C92      1.0000 0.66389  0.95264  0.95264  Biso   1.000  C
  C93      1.0000 0.43083  0.95264  0.95264  Biso   1.000  C
  C94      1.0000 0.04736  0.33611  0.56917  Biso   1.000  C
  C95      1.0000 0.43083  0.95264  0.66389  Biso   1.000  C
  C96      1.0000 0.33611  0.04736  0.04736  Biso   1.000  C
  C97      1.0000 0.95490  0.95490  0.42685  Biso   1.000  C
  C98      1.0000 0.57315  0.04510  0.33665  Biso   1.000  C
  C99      1.0000 0.95490  0.95490  0.66335  Biso   1.000  C
  C100     1.0000 0.04510  0.57315  0.04510  Biso   1.000  C
  C101     1.0000 0.04736  0.04736  0.33611  Biso   1.000  C
  C102     1.0000 0.04736  0.04736  0.56917  Biso   1.000  C
  C103     1.0000 0.95490  0.42685  0.66335  Biso   1.000  C
  C104     1.0000 0.95264  0.66389  0.43083  Biso   1.000  C
  C105     1.0000 0.95490  0.66335  0.95490  Biso   1.000  C
  C106     1.0000 0.66389  0.95264  0.43083  Biso   1.000  C
  O1       1.0000 0.48167  0.34848  0.67641  Biso   1.000  O
  O2       1.0000 0.65725  0.34849  0.50083  Biso   1.000  O
  O3       1.0000 0.48167  0.34848  0.50084  Biso   1.000  O
  O4       1.0000 0.48168  0.52407  0.50083  Biso   1.000  O
  O5       1.0000 0.08564  0.93088  0.90765  Biso   1.000  O
  O6       1.0000 0.91006  0.93088  0.08324  Biso   1.000  O
  O7       1.0000 0.08564  0.75531  0.08324  Biso   1.000  O
  O8       1.0000 0.08564  0.93089  0.08324  Biso   1.000  O
  O9       1.0000 0.63227  0.18507  0.85265  Biso   1.000  O
  O10      1.0000 0.84427  0.18507  0.64065  Biso   1.000  O
  O11      1.0000 0.32904  0.48831  0.33742  Biso   1.000  O
  O12      1.0000 0.32904  0.70030  0.33742  Biso   1.000  O
  O13      1.0000 0.32904  0.70030  0.64065  Biso   1.000  O
  O14      1.0000 0.32904  0.48831  0.85265  Biso   1.000  O
  O15      1.0000 0.63227  0.18507  0.33742  Biso   1.000  O
  O16      1.0000 0.84427  0.18507  0.33742  Biso   1.000  O
  O17      1.0000 0.84427  0.48831  0.33742  Biso   1.000  O
  O18      1.0000 0.63227  0.70030  0.33742  Biso   1.000  O
  O19      1.0000 0.32904  0.18507  0.64065  Biso   1.000  O
  O20      1.0000 0.32904  0.18507  0.85265  Biso   1.000  O
  O21      1.0000 0.93504  0.09430  0.73142  Biso   1.000  O
  O22      1.0000 0.72304  0.09430  0.94341  Biso   1.000  O
  O23      1.0000 0.23827  0.57907  0.24665  Biso   1.000  O
  O24      1.0000 0.23827  0.79107  0.24665  Biso   1.000  O
  O25      1.0000 0.23827  0.09430  0.94341  Biso   1.000  O
  O26      1.0000 0.23827  0.09430  0.73142  Biso   1.000  O
  O27      1.0000 0.93504  0.57907  0.24665  Biso   1.000  O
  O28      1.0000 0.72304  0.79107  0.24665  Biso   1.000  O
  O29      1.0000 0.72304  0.09430  0.24665  Biso   1.000  O
  O30      1.0000 0.93504  0.09430  0.24665  Biso   1.000  O
  O31      1.0000 0.23827  0.57907  0.94341  Biso   1.000  O
  O32      1.0000 0.23827  0.79107  0.73142  Biso   1.000  O
  O33      1.0000 0.69630  0.16663  0.82550  Biso   1.000  O
  O34      1.0000 0.81712  0.16663  0.70467  Biso   1.000  O
  O35      1.0000 0.31060  0.55233  0.31898  Biso   1.000  O
  O36      1.0000 0.31060  0.67315  0.31898  Biso   1.000  O
  O37      1.0000 0.31060  0.67315  0.70467  Biso   1.000  O
  O38      1.0000 0.31060  0.55233  0.82550  Biso   1.000  O
  O39      1.0000 0.69630  0.16663  0.31898  Biso   1.000  O
  O40      1.0000 0.81712  0.16663  0.31898  Biso   1.000  O
  O41      1.0000 0.81712  0.55233  0.31898  Biso   1.000  O
  O42      1.0000 0.69630  0.67315  0.31898  Biso   1.000  O
  O43      1.0000 0.31060  0.16663  0.70467  Biso   1.000  O
  O44      1.0000 0.31060  0.16663  0.82550  Biso   1.000  O
  O45      1.0000 0.87101  0.11274  0.75857  Biso   1.000  O
  O46      1.0000 0.75019  0.11274  0.87939  Biso   1.000  O
  O47      1.0000 0.25671  0.60622  0.26508  Biso   1.000  O
  O48      1.0000 0.25671  0.72705  0.26508  Biso   1.000  O
  O49      1.0000 0.25671  0.11274  0.87939  Biso   1.000  O
  O50      1.0000 0.25671  0.11274  0.75857  Biso   1.000  O
  O51      1.0000 0.87101  0.60622  0.26508  Biso   1.000  O
  O52      1.0000 0.75019  0.72705  0.26508  Biso   1.000  O
  O53      1.0000 0.75019  0.11274  0.26508  Biso   1.000  O
  O54      1.0000 0.87101  0.11274  0.26508  Biso   1.000  O
  O55      1.0000 0.25671  0.60622  0.87939  Biso   1.000  O
  O56      1.0000 0.25671  0.72705  0.75857  Biso   1.000  O
  O57      1.0000 0.66549  0.25246  0.68465  Biso   1.000  O
  O58      1.0000 0.72411  0.19384  0.74326  Biso   1.000  O
  O59      1.0000 0.38565  0.53230  0.40480  Biso   1.000  O
  O60      1.0000 0.32703  0.59092  0.34619  Biso   1.000  O
  O61      1.0000 0.38565  0.53230  0.68465  Biso   1.000  O
  O62      1.0000 0.32703  0.59092  0.74326  Biso   1.000  O
  O63      1.0000 0.66549  0.25246  0.40480  Biso   1.000  O
  O64      1.0000 0.72411  0.19384  0.34619  Biso   1.000  O
  O65      1.0000 0.66549  0.53230  0.40480  Biso   1.000  O
  O66      1.0000 0.72411  0.59092  0.34619  Biso   1.000  O
  O67      1.0000 0.38565  0.25246  0.68465  Biso   1.000  O
  O68      1.0000 0.32703  0.19384  0.74326  Biso   1.000  O
  O69      1.0000 0.90182  0.02691  0.89941  Biso   1.000  O
  O70      1.0000 0.84320  0.08553  0.84080  Biso   1.000  O
  O71      1.0000 0.18166  0.74707  0.17926  Biso   1.000  O
  O72      1.0000 0.24028  0.68845  0.23787  Biso   1.000  O
  O73      1.0000 0.18166  0.02691  0.89941  Biso   1.000  O
  O74      1.0000 0.24028  0.08553  0.84080  Biso   1.000  O
  O75      1.0000 0.90182  0.74707  0.17926  Biso   1.000  O
  O76      1.0000 0.84320  0.68845  0.23787  Biso   1.000  O
  O77      1.0000 0.90182  0.02691  0.17926  Biso   1.000  O
  O78      1.0000 0.84320  0.08553  0.23787  Biso   1.000  O
  O79      1.0000 0.18166  0.74707  0.89941  Biso   1.000  O
  O80      1.0000 0.24028  0.68845  0.84080  Biso   1.000  O
  O81      1.0000 0.52557  0.39238  0.54473  Biso   1.000  O
  O82      1.0000 0.04174  0.88699  0.03934  Biso   1.000  O
  O83      1.0000 0.58129  0.27504  0.72369  Biso   1.000  O
  O84      1.0000 0.70453  0.27504  0.60045  Biso   1.000  O
  O85      1.0000 0.40823  0.44811  0.42739  Biso   1.000  O
  O86      1.0000 0.40823  0.57134  0.42739  Biso   1.000  O
  O87      1.0000 0.40823  0.57134  0.60045  Biso   1.000  O
  O88      1.0000 0.40823  0.44811  0.72369  Biso   1.000  O
  O89      1.0000 0.58129  0.27504  0.42739  Biso   1.000  O
  O90      1.0000 0.70453  0.27504  0.42739  Biso   1.000  O
  O91      1.0000 0.70453  0.44811  0.42739  Biso   1.000  O
  O92      1.0000 0.58129  0.57134  0.42739  Biso   1.000  O
  O93      1.0000 0.40823  0.27504  0.60045  Biso   1.000  O
  O94      1.0000 0.40823  0.27504  0.72369  Biso   1.000  O
  O95      1.0000 0.98602  0.00433  0.86038  Biso   1.000  O
  O96      1.0000 0.86278  0.00433  0.98361  Biso   1.000  O
  O97      1.0000 0.15908  0.70803  0.15668  Biso   1.000  O
  O98      1.0000 0.15908  0.83127  0.15668  Biso   1.000  O
  O99      1.0000 0.15908  0.00433  0.98361  Biso   1.000  O
  O100     1.0000 0.15908  0.00433  0.86038  Biso   1.000  O
  O101     1.0000 0.98602  0.70803  0.15668  Biso   1.000  O
  O102     1.0000 0.86278  0.83127  0.15668  Biso   1.000  O
  O103     1.0000 0.86278  0.00433  0.15668  Biso   1.000  O
  O104     1.0000 0.98602  0.00433  0.15668  Biso   1.000  O
  O105     1.0000 0.15908  0.70803  0.98361  Biso   1.000  O
