data_image0
_cell_length_a       18.1065
_cell_length_b       18.1065
_cell_length_c       18.1065
_cell_angle_alpha    60
_cell_angle_beta     60
_cell_angle_gamma    60

_symmetry_space_group_name_H-M    "P 1"
_symmetry_int_tables_number       1

loop_
  _symmetry_equiv_pos_as_xyz
  'x, y, z'

loop_
  _atom_site_label
  _atom_site_occupancy
  _atom_site_fract_x
  _atom_site_fract_y
  _atom_site_fract_z
  _atom_site_thermal_displace_type
  _atom_site_B_iso_or_equiv
  _atom_site_type_symbol
  C1       1.0000 0.79354  0.61938  0.79354  Biso   1.000  C
  C2       1.0000 0.61938  0.79354  0.79354  Biso   1.000  C
  C3       1.0000 0.20646  0.20646  0.38062  Biso   1.000  C
  C4       1.0000 0.79354  0.79354  0.79354  Biso   1.000  C
  C5       1.0000 0.20646  0.38062  0.20646  Biso   1.000  C
  C6       1.0000 0.20646  0.20646  0.20646  Biso   1.000  C
  C7       1.0000 0.38062  0.20646  0.20646  Biso   1.000  C
  C8       1.0000 0.79354  0.79354  0.61938  Biso   1.000  C
  C9       1.0000 0.41290  0.53690  0.02510  Biso   1.000  C
  C10      1.0000 0.97490  0.46310  0.97490  Biso   1.000  C
  C11      1.0000 0.53690  0.02510  0.02510  Biso   1.000  C
  C12      1.0000 0.94610  0.55390  0.55390  Biso   1.000  C
  C13      1.0000 0.41290  0.02510  0.53690  Biso   1.000  C
  C14      1.0000 0.55390  0.55390  0.94610  Biso   1.000  C
  C15      1.0000 0.38730  0.38730  0.11270  Biso   1.000  C
  C16      1.0000 0.46310  0.58710  0.97490  Biso   1.000  C
  C17      1.0000 0.58710  0.46310  0.97490  Biso   1.000  C
  C18      1.0000 0.94610  0.94610  0.55390  Biso   1.000  C
  C19      1.0000 0.94610  0.55390  0.94610  Biso   1.000  C
  C20      1.0000 0.02510  0.53690  0.41290  Biso   1.000  C
  C21      1.0000 0.02510  0.41290  0.02510  Biso   1.000  C
  C22      1.0000 0.88730  0.61270  0.88730  Biso   1.000  C
  C23      1.0000 0.61270  0.88730  0.61270  Biso   1.000  C
  C24      1.0000 0.38730  0.11270  0.11270  Biso   1.000  C
  C25      1.0000 0.61270  0.88730  0.88730  Biso   1.000  C
  C26      1.0000 0.61270  0.61270  0.88730  Biso   1.000  C
  C27      1.0000 0.53690  0.41290  0.02510  Biso   1.000  C
  C28      1.0000 0.58710  0.97490  0.97490  Biso   1.000  C
  C29      1.0000 0.11270  0.38730  0.11270  Biso   1.000  C
  C30      1.0000 0.46310  0.97490  0.97490  Biso   1.000  C
  C31      1.0000 0.02510  0.41290  0.53690  Biso   1.000  C
  C32      1.0000 0.88730  0.88730  0.61270  Biso   1.000  C
  C33      1.0000 0.46310  0.97490  0.58710  Biso   1.000  C
  C34      1.0000 0.38730  0.11270  0.38730  Biso   1.000  C
  C35      1.0000 0.05390  0.44610  0.05390  Biso   1.000  C
  C36      1.0000 0.41290  0.02510  0.02510  Biso   1.000  C
  C37      1.0000 0.97490  0.97490  0.46310  Biso   1.000  C
  C38      1.0000 0.88730  0.61270  0.61270  Biso   1.000  C
  C39      1.0000 0.53690  0.02510  0.41290  Biso   1.000  C
  C40      1.0000 0.97490  0.97490  0.58710  Biso   1.000  C
  C41      1.0000 0.44610  0.05390  0.44610  Biso   1.000  C
  C42      1.0000 0.02510  0.53690  0.02510  Biso   1.000  C
  C43      1.0000 0.02510  0.02510  0.41290  Biso   1.000  C
  C44      1.0000 0.11270  0.38730  0.38730  Biso   1.000  C
  C45      1.0000 0.02510  0.02510  0.53690  Biso   1.000  C
  C46      1.0000 0.97490  0.46310  0.58710  Biso   1.000  C
  C47      1.0000 0.97490  0.58710  0.46310  Biso   1.000  C
  C48      1.0000 0.55390  0.94610  0.94610  Biso   1.000  C
  C49      1.0000 0.97490  0.58710  0.97490  Biso   1.000  C
  C50      1.0000 0.44610  0.05390  0.05390  Biso   1.000  C
  C51      1.0000 0.05390  0.44610  0.44610  Biso   1.000  C
  C52      1.0000 0.11270  0.11270  0.38730  Biso   1.000  C
  C53      1.0000 0.05390  0.05390  0.44610  Biso   1.000  C
  C54      1.0000 0.55390  0.94610  0.55390  Biso   1.000  C
  C55      1.0000 0.58710  0.97490  0.46310  Biso   1.000  C
  C56      1.0000 0.44610  0.44610  0.05390  Biso   1.000  C
  C57      1.0000 0.13360  0.42978  0.13360  Biso   1.000  C
  C58      1.0000 0.13360  0.42978  0.30302  Biso   1.000  C
  C59      1.0000 0.86640  0.57022  0.86640  Biso   1.000  C
  C60      1.0000 0.30302  0.13360  0.42978  Biso   1.000  C
  C61      1.0000 0.13360  0.13360  0.42978  Biso   1.000  C
  C62      1.0000 0.86640  0.57022  0.69698  Biso   1.000  C
  C63      1.0000 0.69698  0.86640  0.57022  Biso   1.000  C
  C64      1.0000 0.86640  0.86640  0.57022  Biso   1.000  C
  C65      1.0000 0.13360  0.30302  0.13360  Biso   1.000  C
  C66      1.0000 0.42978  0.30302  0.13360  Biso   1.000  C
  C67      1.0000 0.86640  0.69698  0.86640  Biso   1.000  C
  C68      1.0000 0.13360  0.13360  0.30302  Biso   1.000  C
  C69      1.0000 0.69698  0.86640  0.86640  Biso   1.000  C
  C70      1.0000 0.57022  0.69698  0.86640  Biso   1.000  C
  C71      1.0000 0.57022  0.86640  0.86640  Biso   1.000  C
  C72      1.0000 0.13360  0.30302  0.42978  Biso   1.000  C
  C73      1.0000 0.25000  0.25000  0.25000  Biso   1.000  C
  C74      1.0000 0.30302  0.42978  0.13360  Biso   1.000  C
  C75      1.0000 0.69698  0.57022  0.86640  Biso   1.000  C
  C76      1.0000 0.57022  0.86640  0.69698  Biso   1.000  C
  C77      1.0000 0.42978  0.13360  0.13360  Biso   1.000  C
  C78      1.0000 0.86640  0.86640  0.69698  Biso   1.000  C
  C79      1.0000 0.75000  0.75000  0.75000  Biso   1.000  C
  C80      1.0000 0.30302  0.13360  0.13360  Biso   1.000  C
  C81      1.0000 0.86640  0.69698  0.57022  Biso   1.000  C
  C82      1.0000 0.42978  0.13360  0.30302  Biso   1.000  C
  C83      1.0000 0.33611  0.56917  0.04736  Biso   1.000  C
  C84      1.0000 0.95490  0.42685  0.95490  Biso   1.000  C
  C85      1.0000 0.56917  0.04736  0.04736  Biso   1.000  C
  C86      1.0000 0.33611  0.04736  0.56917  Biso   1.000  C
  C87      1.0000 0.43083  0.66389  0.95264  Biso   1.000  C
  C88      1.0000 0.66335  0.42685  0.95490  Biso   1.000  C
  C89      1.0000 0.04736  0.56917  0.33611  Biso   1.000  C
  C90      1.0000 0.04736  0.33611  0.04736  Biso   1.000  C
  C91      1.0000 0.56917  0.33611  0.04736  Biso   1.000  C
  C92      1.0000 0.66389  0.95264  0.95264  Biso   1.000  C
  C93      1.0000 0.43083  0.95264  0.95264  Biso   1.000  C
  C94      1.0000 0.04736  0.33611  0.56917  Biso   1.000  C
  C95      1.0000 0.43083  0.95264  0.66389  Biso   1.000  C
  C96      1.0000 0.33611  0.04736  0.04736  Biso   1.000  C
  C97      1.0000 0.95490  0.95490  0.42685  Biso   1.000  C
  C98      1.0000 0.57315  0.04510  0.33665  Biso   1.000  C
  C99      1.0000 0.95490  0.95490  0.66335  Biso   1.000  C
  C100     1.0000 0.04510  0.57315  0.04510  Biso   1.000  C
  C101     1.0000 0.04736  0.04736  0.33611  Biso   1.000  C
  C102     1.0000 0.04736  0.04736  0.56917  Biso   1.000  C
  C103     1.0000 0.95490  0.42685  0.66335  Biso   1.000  C
  C104     1.0000 0.95490  0.66335  0.42685  Biso   1.000  C
  C105     1.0000 0.95490  0.66335  0.95490  Biso   1.000  C
  C106     1.0000 0.66389  0.95264  0.43083  Biso   1.000  C
  O1       1.0000 0.40697  0.47990  0.47349  Biso   1.000  O
  O2       1.0000 0.40701  0.65360  0.47344  Biso   1.000  O
  O3       1.0000 0.58072  0.47990  0.47349  Biso   1.000  O
  O4       1.0000 0.40702  0.47985  0.64719  Biso   1.000  O
  O5       1.0000 0.99510  0.06552  0.05912  Biso   1.000  O
  O6       1.0000 0.99506  0.89181  0.05917  Biso   1.000  O
  O7       1.0000 0.82135  0.06552  0.05912  Biso   1.000  O
  O8       1.0000 0.99505  0.06557  0.88541  Biso   1.000  O
  O9       1.0000 0.22610  0.68128  0.29358  Biso   1.000  O
  O10      1.0000 0.60861  0.29977  0.29156  Biso   1.000  O
  O11      1.0000 0.22550  0.30078  0.67488  Biso   1.000  O
  O12      1.0000 0.22712  0.81059  0.29258  Biso   1.000  O
  O13      1.0000 0.22511  0.81160  0.67508  Biso   1.000  O
  O14      1.0000 0.60842  0.81040  0.29196  Biso   1.000  O
  O15      1.0000 0.74012  0.29999  0.67487  Biso   1.000  O
  O16      1.0000 0.74113  0.29797  0.29337  Biso   1.000  O
  O17      1.0000 0.73992  0.68129  0.29437  Biso   1.000  O
  O18      1.0000 0.61080  0.29898  0.80419  Biso   1.000  O
  O19      1.0000 0.22929  0.68149  0.80520  Biso   1.000  O
  O20      1.0000 0.23030  0.29837  0.80400  Biso   1.000  O
  O21      1.0000 0.17597  0.86414  0.23903  Biso   1.000  O
  O22      1.0000 0.79346  0.24564  0.24104  Biso   1.000  O
  O23      1.0000 0.17657  0.24464  0.85773  Biso   1.000  O
  O24      1.0000 0.17495  0.73483  0.24003  Biso   1.000  O
  O25      1.0000 0.17697  0.73381  0.85753  Biso   1.000  O
  O26      1.0000 0.79365  0.73502  0.24064  Biso   1.000  O
  O27      1.0000 0.66195  0.24543  0.85774  Biso   1.000  O
  O28      1.0000 0.66094  0.24745  0.23924  Biso   1.000  O
  O29      1.0000 0.66215  0.86413  0.23824  Biso   1.000  O
  O30      1.0000 0.79127  0.24644  0.72842  Biso   1.000  O
  O31      1.0000 0.17278  0.86393  0.72740  Biso   1.000  O
  O32      1.0000 0.17177  0.24705  0.72861  Biso   1.000  O
  O33      1.0000 0.25376  0.71998  0.32023  Biso   1.000  O
  O34      1.0000 0.31258  0.66116  0.37905  Biso   1.000  O
  O35      1.0000 0.64710  0.32664  0.71357  Biso   1.000  O
  O36      1.0000 0.58828  0.38546  0.65475  Biso   1.000  O
  O37      1.0000 0.14831  0.82543  0.21237  Biso   1.000  O
  O38      1.0000 0.08949  0.88425  0.15355  Biso   1.000  O
  O39      1.0000 0.75497  0.21878  0.81904  Biso   1.000  O
  O40      1.0000 0.81379  0.15995  0.87786  Biso   1.000  O
  O41      1.0000 0.25356  0.32644  0.71377  Biso   1.000  O
  O42      1.0000 0.31210  0.38498  0.65523  Biso   1.000  O
  O43      1.0000 0.64730  0.72018  0.32003  Biso   1.000  O
  O44      1.0000 0.58876  0.66164  0.37857  Biso   1.000  O
  O45      1.0000 0.14851  0.21898  0.81883  Biso   1.000  O
  O46      1.0000 0.08997  0.16044  0.87737  Biso   1.000  O
  O47      1.0000 0.75477  0.82523  0.21258  Biso   1.000  O
  O48      1.0000 0.81331  0.88377  0.15404  Biso   1.000  O
  O49      1.0000 0.64751  0.32624  0.31983  Biso   1.000  O
  O50      1.0000 0.58896  0.38478  0.37837  Biso   1.000  O
  O51      1.0000 0.25335  0.72039  0.71397  Biso   1.000  O
  O52      1.0000 0.31190  0.66185  0.65543  Biso   1.000  O
  O53      1.0000 0.75456  0.21918  0.21278  Biso   1.000  O
  O54      1.0000 0.81311  0.16064  0.15424  Biso   1.000  O
  O55      1.0000 0.14872  0.82503  0.81863  Biso   1.000  O
  O56      1.0000 0.09018  0.88357  0.87717  Biso   1.000  O
  O57      1.0000 0.33523  0.57672  0.40010  Biso   1.000  O
  O58      1.0000 0.33329  0.40812  0.57115  Biso   1.000  O
  O59      1.0000 0.50342  0.40775  0.40052  Biso   1.000  O
  O60      1.0000 0.33363  0.70190  0.40171  Biso   1.000  O
  O61      1.0000 0.50468  0.70140  0.39976  Biso   1.000  O
  O62      1.0000 0.33405  0.70226  0.56989  Biso   1.000  O
  O63      1.0000 0.62902  0.40651  0.57031  Biso   1.000  O
  O64      1.0000 0.62852  0.57756  0.40171  Biso   1.000  O
  O65      1.0000 0.62938  0.40693  0.40135  Biso   1.000  O
  O66      1.0000 0.50384  0.40812  0.69549  Biso   1.000  O
  O67      1.0000 0.33524  0.40617  0.69499  Biso   1.000  O
  O68      1.0000 0.33487  0.57630  0.69585  Biso   1.000  O
  O69      1.0000 0.06684  0.96870  0.13250  Biso   1.000  O
  O70      1.0000 0.06878  0.13730  0.96146  Biso   1.000  O
  O71      1.0000 0.89865  0.13766  0.13208  Biso   1.000  O
  O72      1.0000 0.06844  0.84352  0.13090  Biso   1.000  O
  O73      1.0000 0.89739  0.84402  0.13284  Biso   1.000  O
  O74      1.0000 0.06802  0.84315  0.96272  Biso   1.000  O
  O75      1.0000 0.77305  0.13890  0.96230  Biso   1.000  O
  O76      1.0000 0.77356  0.96786  0.13090  Biso   1.000  O
  O77      1.0000 0.77269  0.13848  0.13126  Biso   1.000  O
  O78      1.0000 0.89823  0.13730  0.83712  Biso   1.000  O
  O79      1.0000 0.06683  0.13924  0.83762  Biso   1.000  O
  O80      1.0000 0.06720  0.96912  0.83676  Biso   1.000  O
  O81      1.0000 0.45043  0.52331  0.51690  Biso   1.000  O
  O82      1.0000 0.95164  0.02210  0.01570  Biso   1.000  O
  O83      1.0000 0.53183  0.32278  0.31309  Biso   1.000  O
  O84      1.0000 0.77339  0.31949  0.31637  Biso   1.000  O
  O85      1.0000 0.87024  0.22264  0.21952  Biso   1.000  O
  O86      1.0000 0.62868  0.22593  0.21623  Biso   1.000  O
  O87      1.0000 0.77218  0.60452  0.31763  Biso   1.000  O
  O88      1.0000 0.87042  0.70276  0.21938  Biso   1.000  O
  O89      1.0000 0.24676  0.32403  0.59811  Biso   1.000  O
  O90      1.0000 0.14851  0.22579  0.69635  Biso   1.000  O
  O91      1.0000 0.24980  0.84286  0.31442  Biso   1.000  O
  O92      1.0000 0.24663  0.84386  0.59830  Biso   1.000  O
  O93      1.0000 0.86805  0.22460  0.69615  Biso   1.000  O
  O94      1.0000 0.14977  0.94071  0.69515  Biso   1.000  O
  O95      1.0000 0.53165  0.84266  0.31323  Biso   1.000  O
  O96      1.0000 0.62989  0.94090  0.21498  Biso   1.000  O
  O97      1.0000 0.25356  0.31963  0.83626  Biso   1.000  O
  O98      1.0000 0.15531  0.22138  0.93450  Biso   1.000  O
  O99      1.0000 0.62969  0.22276  0.93452  Biso   1.000  O
  O100     1.0000 0.25230  0.60470  0.83746  Biso   1.000  O
  O101     1.0000 0.15544  0.70156  0.93431  Biso   1.000  O
  O102     1.0000 0.53402  0.32082  0.83646  Biso   1.000  O
  O103     1.0000 0.15228  0.70256  0.21819  Biso   1.000  O
  O104     1.0000 0.24795  0.60450  0.31625  Biso   1.000  O
  O105     1.0000 0.15413  0.94092  0.21635  Biso   1.000  O
