data_image0
_cell_length_a       18.1065
_cell_length_b       18.1065
_cell_length_c       18.1065
_cell_angle_alpha    60
_cell_angle_beta     60
_cell_angle_gamma    60

_symmetry_space_group_name_H-M    "P 1"
_symmetry_int_tables_number       1

loop_
  _symmetry_equiv_pos_as_xyz
  'x, y, z'

loop_
  _atom_site_label
  _atom_site_occupancy
  _atom_site_fract_x
  _atom_site_fract_y
  _atom_site_fract_z
  _atom_site_thermal_displace_type
  _atom_site_B_iso_or_equiv
  _atom_site_type_symbol
  Zn1      1.0000 0.79354  0.61938  0.79354  Biso   1.000  Zn
  Zn2      1.0000 0.61938  0.79354  0.79354  Biso   1.000  Zn
  Zn3      1.0000 0.20646  0.20646  0.38062  Biso   1.000  Zn
  Zn4      1.0000 0.79354  0.79354  0.79354  Biso   1.000  Zn
  Zn5      1.0000 0.20646  0.38062  0.20646  Biso   1.000  Zn
  Zn6      1.0000 0.20646  0.20646  0.20646  Biso   1.000  Zn
  Zn7      1.0000 0.38062  0.20646  0.20646  Biso   1.000  Zn
  Zn8      1.0000 0.79354  0.79354  0.61938  Biso   1.000  Zn
  C1       1.0000 0.41290  0.53690  0.02510  Biso   1.000  C
  C2       1.0000 0.97490  0.46310  0.97490  Biso   1.000  C
  C3       1.0000 0.53690  0.02510  0.02510  Biso   1.000  C
  C4       1.0000 0.94610  0.55390  0.55390  Biso   1.000  C
  C5       1.0000 0.41290  0.02510  0.53690  Biso   1.000  C
  C6       1.0000 0.55390  0.55390  0.94610  Biso   1.000  C
  C7       1.0000 0.38730  0.38730  0.11270  Biso   1.000  C
  C8       1.0000 0.46310  0.58710  0.97490  Biso   1.000  C
  C9       1.0000 0.58710  0.46310  0.97490  Biso   1.000  C
  C10      1.0000 0.94610  0.94610  0.55390  Biso   1.000  C
  C11      1.0000 0.94610  0.55390  0.94610  Biso   1.000  C
  C12      1.0000 0.02510  0.53690  0.41290  Biso   1.000  C
  C13      1.0000 0.02510  0.41290  0.02510  Biso   1.000  C
  C14      1.0000 0.88730  0.61270  0.88730  Biso   1.000  C
  C15      1.0000 0.61270  0.88730  0.61270  Biso   1.000  C
  C16      1.0000 0.38730  0.11270  0.11270  Biso   1.000  C
  C17      1.0000 0.61270  0.88730  0.88730  Biso   1.000  C
  C18      1.0000 0.61270  0.61270  0.88730  Biso   1.000  C
  C19      1.0000 0.53690  0.41290  0.02510  Biso   1.000  C
  C20      1.0000 0.58710  0.97490  0.97490  Biso   1.000  C
  C21      1.0000 0.11270  0.38730  0.11270  Biso   1.000  C
  C22      1.0000 0.46310  0.97490  0.97490  Biso   1.000  C
  C23      1.0000 0.02510  0.41290  0.53690  Biso   1.000  C
  C24      1.0000 0.88730  0.88730  0.61270  Biso   1.000  C
  C25      1.0000 0.46310  0.97490  0.58710  Biso   1.000  C
  C26      1.0000 0.38730  0.11270  0.38730  Biso   1.000  C
  C27      1.0000 0.05390  0.44610  0.05390  Biso   1.000  C
  C28      1.0000 0.41290  0.02510  0.02510  Biso   1.000  C
  C29      1.0000 0.97490  0.97490  0.46310  Biso   1.000  C
  C30      1.0000 0.88730  0.61270  0.61270  Biso   1.000  C
  C31      1.0000 0.53690  0.02510  0.41290  Biso   1.000  C
  C32      1.0000 0.97490  0.97490  0.58710  Biso   1.000  C
  C33      1.0000 0.44610  0.05390  0.44610  Biso   1.000  C
  C34      1.0000 0.02510  0.53690  0.02510  Biso   1.000  C
  C35      1.0000 0.02510  0.02510  0.41290  Biso   1.000  C
  C36      1.0000 0.11270  0.38730  0.38730  Biso   1.000  C
  C37      1.0000 0.02510  0.02510  0.53690  Biso   1.000  C
  C38      1.0000 0.97490  0.46310  0.58710  Biso   1.000  C
  C39      1.0000 0.97490  0.58710  0.46310  Biso   1.000  C
  C40      1.0000 0.55390  0.94610  0.94610  Biso   1.000  C
  C41      1.0000 0.97490  0.58710  0.97490  Biso   1.000  C
  C42      1.0000 0.44610  0.05390  0.05390  Biso   1.000  C
  C43      1.0000 0.05390  0.44610  0.44610  Biso   1.000  C
  C44      1.0000 0.11270  0.11270  0.38730  Biso   1.000  C
  C45      1.0000 0.05390  0.05390  0.44610  Biso   1.000  C
  C46      1.0000 0.55390  0.94610  0.55390  Biso   1.000  C
  C47      1.0000 0.58710  0.97490  0.46310  Biso   1.000  C
  C48      1.0000 0.44610  0.44610  0.05390  Biso   1.000  C
  O1       1.0000 0.13360  0.42978  0.13360  Biso   1.000  O
  O2       1.0000 0.13360  0.42978  0.30302  Biso   1.000  O
  O3       1.0000 0.86640  0.57022  0.86640  Biso   1.000  O
  O4       1.0000 0.30302  0.13360  0.42978  Biso   1.000  O
  O5       1.0000 0.13360  0.13360  0.42978  Biso   1.000  O
  O6       1.0000 0.86640  0.57022  0.69698  Biso   1.000  O
  O7       1.0000 0.69698  0.86640  0.57022  Biso   1.000  O
  O8       1.0000 0.86640  0.86640  0.57022  Biso   1.000  O
  O9       1.0000 0.13360  0.30302  0.13360  Biso   1.000  O
  O10      1.0000 0.42978  0.30302  0.13360  Biso   1.000  O
  O11      1.0000 0.86640  0.69698  0.86640  Biso   1.000  O
  O12      1.0000 0.13360  0.13360  0.30302  Biso   1.000  O
  O13      1.0000 0.69698  0.86640  0.86640  Biso   1.000  O
  O14      1.0000 0.57022  0.69698  0.86640  Biso   1.000  O
  O15      1.0000 0.57022  0.86640  0.86640  Biso   1.000  O
  O16      1.0000 0.13360  0.30302  0.42978  Biso   1.000  O
  O17      1.0000 0.25000  0.25000  0.25000  Biso   1.000  O
  O18      1.0000 0.30302  0.42978  0.13360  Biso   1.000  O
  O19      1.0000 0.69698  0.57022  0.86640  Biso   1.000  O
  O20      1.0000 0.57022  0.86640  0.69698  Biso   1.000  O
  O21      1.0000 0.42978  0.13360  0.13360  Biso   1.000  O
  O22      1.0000 0.86640  0.86640  0.69698  Biso   1.000  O
  O23      1.0000 0.75000  0.75000  0.75000  Biso   1.000  O
  O24      1.0000 0.30302  0.13360  0.13360  Biso   1.000  O
  O25      1.0000 0.86640  0.69698  0.57022  Biso   1.000  O
  O26      1.0000 0.42978  0.13360  0.30302  Biso   1.000  O
  H1       1.0000 0.33611  0.56917  0.04736  Biso   1.000  H
  H2       1.0000 0.95490  0.42685  0.95490  Biso   1.000  H
  H3       1.0000 0.56917  0.04736  0.04736  Biso   1.000  H
  H4       1.0000 0.33611  0.04736  0.56917  Biso   1.000  H
  H5       1.0000 0.43083  0.66389  0.95264  Biso   1.000  H
  H6       1.0000 0.66335  0.42685  0.95490  Biso   1.000  H
  H7       1.0000 0.04736  0.56917  0.33611  Biso   1.000  H
  H8       1.0000 0.04736  0.33611  0.04736  Biso   1.000  H
  H9       1.0000 0.56917  0.33611  0.04736  Biso   1.000  H
  H10      1.0000 0.66389  0.95264  0.95264  Biso   1.000  H
  H11      1.0000 0.43083  0.95264  0.95264  Biso   1.000  H
  H12      1.0000 0.04736  0.33611  0.56917  Biso   1.000  H
  H13      1.0000 0.43083  0.95264  0.66389  Biso   1.000  H
  H14      1.0000 0.33611  0.04736  0.04736  Biso   1.000  H
  H15      1.0000 0.95490  0.95490  0.42685  Biso   1.000  H
  H16      1.0000 0.57315  0.04510  0.33665  Biso   1.000  H
  H17      1.0000 0.95490  0.95490  0.66335  Biso   1.000  H
  H18      1.0000 0.04510  0.57315  0.04510  Biso   1.000  H
  H19      1.0000 0.04736  0.04736  0.33611  Biso   1.000  H
  H20      1.0000 0.04736  0.04736  0.56917  Biso   1.000  H
  H21      1.0000 0.95490  0.42685  0.66335  Biso   1.000  H
  H22      1.0000 0.95264  0.66389  0.43083  Biso   1.000  H
  H23      1.0000 0.95490  0.66335  0.95490  Biso   1.000  H
  H24      1.0000 0.66389  0.95264  0.43083  Biso   1.000  H
  Zn9      1.0000 0.16569  0.00000  0.00000  Biso   1.000  Zn
  Zn10     1.0000 0.99126  1.00000  0.17442  Biso   1.000  Zn
  Zn11     1.0000 0.99126  0.17442  0.00000  Biso   1.000  Zn
  Zn12     1.0000 0.99126  0.00000  0.00000  Biso   1.000  Zn
  Zn13     1.0000 0.40771  0.58599  0.58599  Biso   1.000  Zn
  Zn14     1.0000 0.58214  0.58599  0.41157  Biso   1.000  Zn
  Zn15     1.0000 0.58214  0.58599  0.58599  Biso   1.000  Zn
  Zn16     1.0000 0.58214  0.41157  0.58599  Biso   1.000  Zn
  H25      1.0000 0.35224  0.83831  0.13683  Biso   1.000  H
  H26      1.0000 0.13054  0.83831  0.35854  Biso   1.000  H
  H27      1.0000 0.83201  0.35854  0.83831  Biso   1.000  H
  H28      1.0000 0.83201  0.13683  0.83831  Biso   1.000  H
  H29      1.0000 0.83201  0.13683  0.35854  Biso   1.000  H
  H30      1.0000 0.83201  0.35854  0.13683  Biso   1.000  H
  H31      1.0000 0.35224  0.83831  0.83831  Biso   1.000  H
  H32      1.0000 0.13054  0.83831  0.83831  Biso   1.000  H
  H33      1.0000 0.13054  0.35854  0.83831  Biso   1.000  H
  H34      1.0000 0.35224  0.13683  0.83831  Biso   1.000  H
  H35      1.0000 0.83201  0.83831  0.35854  Biso   1.000  H
  H36      1.0000 0.83201  0.83831  0.13683  Biso   1.000  H
  H37      1.0000 0.22116  0.74769  0.44916  Biso   1.000  H
  H38      1.0000 0.44286  0.74769  0.22745  Biso   1.000  H
  H39      1.0000 0.74139  0.44916  0.74769  Biso   1.000  H
  H40      1.0000 0.74139  0.22745  0.74769  Biso   1.000  H
  H41      1.0000 0.74139  0.74769  0.22745  Biso   1.000  H
  H42      1.0000 0.74139  0.74769  0.44916  Biso   1.000  H
  H43      1.0000 0.22116  0.44916  0.74769  Biso   1.000  H
  H44      1.0000 0.44286  0.22745  0.74769  Biso   1.000  H
  H45      1.0000 0.44286  0.74769  0.74769  Biso   1.000  H
  H46      1.0000 0.22116  0.74769  0.74769  Biso   1.000  H
  H47      1.0000 0.74139  0.44916  0.22745  Biso   1.000  H
  H48      1.0000 0.74139  0.22745  0.44916  Biso   1.000  H
  C49      1.0000 0.32548  0.81936  0.20149  Biso   1.000  C
  C50      1.0000 0.19519  0.81936  0.33177  Biso   1.000  C
  C51      1.0000 0.81306  0.33177  0.81936  Biso   1.000  C
  C52      1.0000 0.81306  0.20149  0.81936  Biso   1.000  C
  C53      1.0000 0.81306  0.20149  0.33177  Biso   1.000  C
  C54      1.0000 0.81306  0.33177  0.20149  Biso   1.000  C
  C55      1.0000 0.32548  0.81936  0.81936  Biso   1.000  C
  C56      1.0000 0.19519  0.81936  0.81936  Biso   1.000  C
  C57      1.0000 0.19519  0.33177  0.81936  Biso   1.000  C
  C58      1.0000 0.32548  0.20149  0.81936  Biso   1.000  C
  C59      1.0000 0.81306  0.81936  0.33177  Biso   1.000  C
  C60      1.0000 0.81306  0.81936  0.20149  Biso   1.000  C
  C61      1.0000 0.24792  0.76663  0.38450  Biso   1.000  C
  C62      1.0000 0.37820  0.76663  0.25422  Biso   1.000  C
  C63      1.0000 0.76033  0.38450  0.76663  Biso   1.000  C
  C64      1.0000 0.76033  0.25422  0.76663  Biso   1.000  C
  C65      1.0000 0.76033  0.76663  0.25422  Biso   1.000  C
  C66      1.0000 0.76033  0.76663  0.38450  Biso   1.000  C
  C67      1.0000 0.24792  0.38450  0.76663  Biso   1.000  C
  C68      1.0000 0.37820  0.25422  0.76663  Biso   1.000  C
  C69      1.0000 0.37820  0.76663  0.76663  Biso   1.000  C
  C70      1.0000 0.24792  0.76663  0.76663  Biso   1.000  C
  C71      1.0000 0.76033  0.38450  0.25422  Biso   1.000  C
  C72      1.0000 0.76033  0.25422  0.38450  Biso   1.000  C
  C73      1.0000 0.17471  0.90377  0.18345  Biso   1.000  C
  C74      1.0000 0.23155  0.84693  0.24029  Biso   1.000  C
  C75      1.0000 0.89503  0.18345  0.90377  Biso   1.000  C
  C76      1.0000 0.83819  0.24029  0.84693  Biso   1.000  C
  C77      1.0000 0.89503  0.18345  0.18345  Biso   1.000  C
  C78      1.0000 0.83819  0.24029  0.24029  Biso   1.000  C
  C79      1.0000 0.17471  0.90377  0.90377  Biso   1.000  C
  C80      1.0000 0.23155  0.84693  0.84693  Biso   1.000  C
  C81      1.0000 0.17471  0.18345  0.90377  Biso   1.000  C
  C82      1.0000 0.23155  0.24029  0.84693  Biso   1.000  C
  C83      1.0000 0.89503  0.90377  0.18345  Biso   1.000  C
  C84      1.0000 0.83819  0.84693  0.24029  Biso   1.000  C
  C85      1.0000 0.39869  0.68223  0.40255  Biso   1.000  C
  C86      1.0000 0.34185  0.73906  0.34571  Biso   1.000  C
  C87      1.0000 0.67837  0.40254  0.68223  Biso   1.000  C
  C88      1.0000 0.73521  0.34571  0.73906  Biso   1.000  C
  C89      1.0000 0.67837  0.68223  0.40255  Biso   1.000  C
  C90      1.0000 0.73521  0.73906  0.34571  Biso   1.000  C
  C91      1.0000 0.39869  0.40254  0.68223  Biso   1.000  C
  C92      1.0000 0.34185  0.34571  0.73906  Biso   1.000  C
  C93      1.0000 0.39869  0.68223  0.68223  Biso   1.000  C
  C94      1.0000 0.34185  0.73906  0.73906  Biso   1.000  C
  C95      1.0000 0.67837  0.40254  0.40255  Biso   1.000  C
  C96      1.0000 0.73521  0.34571  0.34571  Biso   1.000  C
  O27      1.0000 0.03487  0.04361  0.04361  Biso   1.000  O
  O28      1.0000 0.53853  0.54239  0.54239  Biso   1.000  O
  O29      1.0000 0.21501  0.92722  0.09623  Biso   1.000  O
  O30      1.0000 0.08750  0.92722  0.22374  Biso   1.000  O
  O31      1.0000 0.91848  0.22374  0.92722  Biso   1.000  O
  O32      1.0000 0.91848  0.09623  0.92722  Biso   1.000  O
  O33      1.0000 0.91848  0.09623  0.22374  Biso   1.000  O
  O34      1.0000 0.91848  0.22374  0.09623  Biso   1.000  O
  O35      1.0000 0.21501  0.92722  0.92722  Biso   1.000  O
  O36      1.0000 0.08750  0.92722  0.92722  Biso   1.000  O
  O37      1.0000 0.08750  0.22374  0.92722  Biso   1.000  O
  O38      1.0000 0.21501  0.09623  0.92722  Biso   1.000  O
  O39      1.0000 0.91848  0.92722  0.22374  Biso   1.000  O
  O40      1.0000 0.91848  0.92722  0.09623  Biso   1.000  O
  O41      1.0000 0.35839  0.65877  0.48976  Biso   1.000  O
  O42      1.0000 0.48590  0.65877  0.36225  Biso   1.000  O
  O43      1.0000 0.65491  0.48976  0.65877  Biso   1.000  O
  O44      1.0000 0.65491  0.36225  0.65877  Biso   1.000  O
  O45      1.0000 0.65491  0.65877  0.36225  Biso   1.000  O
  O46      1.0000 0.65491  0.65877  0.48976  Biso   1.000  O
  O47      1.0000 0.35839  0.48976  0.65877  Biso   1.000  O
  O48      1.0000 0.48590  0.36225  0.65877  Biso   1.000  O
  O49      1.0000 0.48590  0.65877  0.65877  Biso   1.000  O
  O50      1.0000 0.35839  0.65877  0.65877  Biso   1.000  O
  O51      1.0000 0.65491  0.48976  0.36225  Biso   1.000  O
