data_image0
_cell_length_a       18.1065
_cell_length_b       18.1065
_cell_length_c       18.1065
_cell_angle_alpha    60
_cell_angle_beta     60
_cell_angle_gamma    60

_symmetry_space_group_name_H-M    "P 1"
_symmetry_int_tables_number       1

loop_
  _symmetry_equiv_pos_as_xyz
  'x, y, z'

loop_
  _atom_site_label
  _atom_site_occupancy
  _atom_site_fract_x
  _atom_site_fract_y
  _atom_site_fract_z
  _atom_site_thermal_displace_type
  _atom_site_B_iso_or_equiv
  _atom_site_type_symbol
  C1       1.0000 0.79354  0.61938  0.79354  Biso   1.000  C
  C2       1.0000 0.61938  0.79354  0.79354  Biso   1.000  C
  C3       1.0000 0.20646  0.20646  0.38062  Biso   1.000  C
  C4       1.0000 0.79354  0.79354  0.79354  Biso   1.000  C
  C5       1.0000 0.20646  0.38062  0.20646  Biso   1.000  C
  C6       1.0000 0.20646  0.20646  0.20646  Biso   1.000  C
  C7       1.0000 0.38062  0.20646  0.20646  Biso   1.000  C
  C8       1.0000 0.79354  0.79354  0.61938  Biso   1.000  C
  C9       1.0000 0.41290  0.53690  0.02510  Biso   1.000  C
  C10      1.0000 0.97490  0.46310  0.97490  Biso   1.000  C
  C11      1.0000 0.53690  0.02510  0.02510  Biso   1.000  C
  C12      1.0000 0.94610  0.55390  0.55390  Biso   1.000  C
  C13      1.0000 0.41290  0.02510  0.53690  Biso   1.000  C
  C14      1.0000 0.55390  0.55390  0.94610  Biso   1.000  C
  C15      1.0000 0.38730  0.38730  0.11270  Biso   1.000  C
  C16      1.0000 0.46310  0.58710  0.97490  Biso   1.000  C
  C17      1.0000 0.58710  0.46310  0.97490  Biso   1.000  C
  C18      1.0000 0.94610  0.94610  0.55390  Biso   1.000  C
  C19      1.0000 0.94610  0.55390  0.94610  Biso   1.000  C
  C20      1.0000 0.02510  0.53690  0.41290  Biso   1.000  C
  C21      1.0000 0.02510  0.41290  0.02510  Biso   1.000  C
  C22      1.0000 0.88730  0.61270  0.88730  Biso   1.000  C
  C23      1.0000 0.61270  0.88730  0.61270  Biso   1.000  C
  C24      1.0000 0.38730  0.11270  0.11270  Biso   1.000  C
  C25      1.0000 0.61270  0.88730  0.88730  Biso   1.000  C
  C26      1.0000 0.61270  0.61270  0.88730  Biso   1.000  C
  C27      1.0000 0.53690  0.41290  0.02510  Biso   1.000  C
  C28      1.0000 0.58710  0.97490  0.97490  Biso   1.000  C
  C29      1.0000 0.11270  0.38730  0.11270  Biso   1.000  C
  C30      1.0000 0.46310  0.97490  0.97490  Biso   1.000  C
  C31      1.0000 0.02510  0.41290  0.53690  Biso   1.000  C
  C32      1.0000 0.88730  0.88730  0.61270  Biso   1.000  C
  C33      1.0000 0.46310  0.97490  0.58710  Biso   1.000  C
  C34      1.0000 0.38730  0.11270  0.38730  Biso   1.000  C
  C35      1.0000 0.05390  0.44610  0.05390  Biso   1.000  C
  C36      1.0000 0.41290  0.02510  0.02510  Biso   1.000  C
  C37      1.0000 0.97490  0.97490  0.46310  Biso   1.000  C
  C38      1.0000 0.88730  0.61270  0.61270  Biso   1.000  C
  C39      1.0000 0.53690  0.02510  0.41290  Biso   1.000  C
  C40      1.0000 0.97490  0.97490  0.58710  Biso   1.000  C
  C41      1.0000 0.44610  0.05390  0.44610  Biso   1.000  C
  C42      1.0000 0.02510  0.53690  0.02510  Biso   1.000  C
  C43      1.0000 0.02510  0.02510  0.41290  Biso   1.000  C
  C44      1.0000 0.11270  0.38730  0.38730  Biso   1.000  C
  C45      1.0000 0.02510  0.02510  0.53690  Biso   1.000  C
  C46      1.0000 0.97490  0.46310  0.58710  Biso   1.000  C
  C47      1.0000 0.97490  0.58710  0.46310  Biso   1.000  C
  C48      1.0000 0.55390  0.94610  0.94610  Biso   1.000  C
  C49      1.0000 0.97490  0.58710  0.97490  Biso   1.000  C
  C50      1.0000 0.44610  0.05390  0.05390  Biso   1.000  C
  C51      1.0000 0.05390  0.44610  0.44610  Biso   1.000  C
  C52      1.0000 0.11270  0.11270  0.38730  Biso   1.000  C
  C53      1.0000 0.05390  0.05390  0.44610  Biso   1.000  C
  C54      1.0000 0.55390  0.94610  0.55390  Biso   1.000  C
  C55      1.0000 0.58710  0.97490  0.46310  Biso   1.000  C
  C56      1.0000 0.44610  0.44610  0.05390  Biso   1.000  C
  C57      1.0000 0.13360  0.42978  0.13360  Biso   1.000  C
  C58      1.0000 0.13360  0.42978  0.30302  Biso   1.000  C
  C59      1.0000 0.86640  0.57022  0.86640  Biso   1.000  C
  C60      1.0000 0.30302  0.13360  0.42978  Biso   1.000  C
  C61      1.0000 0.13360  0.13360  0.42978  Biso   1.000  C
  C62      1.0000 0.86640  0.57022  0.69698  Biso   1.000  C
  C63      1.0000 0.69698  0.86640  0.57022  Biso   1.000  C
  C64      1.0000 0.86640  0.86640  0.57022  Biso   1.000  C
  C65      1.0000 0.13360  0.30302  0.13360  Biso   1.000  C
  C66      1.0000 0.42978  0.30302  0.13360  Biso   1.000  C
  C67      1.0000 0.86640  0.69698  0.86640  Biso   1.000  C
  C68      1.0000 0.13360  0.13360  0.30302  Biso   1.000  C
  C69      1.0000 0.69698  0.86640  0.86640  Biso   1.000  C
  C70      1.0000 0.57022  0.69698  0.86640  Biso   1.000  C
  C71      1.0000 0.57022  0.86640  0.86640  Biso   1.000  C
  C72      1.0000 0.13360  0.30302  0.42978  Biso   1.000  C
  C73      1.0000 0.25000  0.25000  0.25000  Biso   1.000  C
  C74      1.0000 0.30302  0.42978  0.13360  Biso   1.000  C
  C75      1.0000 0.69698  0.57022  0.86640  Biso   1.000  C
  C76      1.0000 0.57022  0.86640  0.69698  Biso   1.000  C
  C77      1.0000 0.42978  0.13360  0.13360  Biso   1.000  C
  C78      1.0000 0.86640  0.86640  0.69698  Biso   1.000  C
  C79      1.0000 0.75000  0.75000  0.75000  Biso   1.000  C
  C80      1.0000 0.30302  0.13360  0.13360  Biso   1.000  C
  C81      1.0000 0.86640  0.69698  0.57022  Biso   1.000  C
  C82      1.0000 0.42978  0.13360  0.30302  Biso   1.000  C
  C83      1.0000 0.33611  0.56917  0.04736  Biso   1.000  C
  C84      1.0000 0.95490  0.42685  0.95490  Biso   1.000  C
  C85      1.0000 0.56917  0.04736  0.04736  Biso   1.000  C
  C86      1.0000 0.33611  0.04736  0.56917  Biso   1.000  C
  C87      1.0000 0.43083  0.66389  0.95264  Biso   1.000  C
  C88      1.0000 0.66335  0.42685  0.95490  Biso   1.000  C
  C89      1.0000 0.04736  0.56917  0.33611  Biso   1.000  C
  C90      1.0000 0.04736  0.33611  0.04736  Biso   1.000  C
  C91      1.0000 0.56917  0.33611  0.04736  Biso   1.000  C
  C92      1.0000 0.66389  0.95264  0.95264  Biso   1.000  C
  C93      1.0000 0.43083  0.95264  0.95264  Biso   1.000  C
  C94      1.0000 0.04736  0.33611  0.56917  Biso   1.000  C
  C95      1.0000 0.43083  0.95264  0.66389  Biso   1.000  C
  C96      1.0000 0.33611  0.04736  0.04736  Biso   1.000  C
  C97      1.0000 0.95490  0.95490  0.42685  Biso   1.000  C
  C98      1.0000 0.57315  0.04510  0.33665  Biso   1.000  C
  C99      1.0000 0.95490  0.95490  0.66335  Biso   1.000  C
  C100     1.0000 0.04510  0.57315  0.04510  Biso   1.000  C
  C101     1.0000 0.04736  0.04736  0.33611  Biso   1.000  C
  C102     1.0000 0.04736  0.04736  0.56917  Biso   1.000  C
  C103     1.0000 0.95490  0.42685  0.66335  Biso   1.000  C
  C104     1.0000 0.95264  0.66389  0.43083  Biso   1.000  C
  C105     1.0000 0.95490  0.66335  0.95490  Biso   1.000  C
  C106     1.0000 0.66389  0.95264  0.43083  Biso   1.000  C
  O1       1.0000 0.16569  0.00000  0.00000  Biso   1.000  O
  O2       1.0000 0.57328  0.40759  0.59227  Biso   1.000  O
  O3       1.0000 0.39699  0.58387  0.59227  Biso   1.000  O
  O4       1.0000 0.98940  0.17629  0.00000  Biso   1.000  O
  O5       1.0000 0.98906  0.99966  0.17651  Biso   1.000  O
  O6       1.0000 0.98925  0.99985  0.99990  Biso   1.000  O
  O7       1.0000 0.57362  0.58421  0.41577  Biso   1.000  O
  O8       1.0000 0.57343  0.58402  0.59237  Biso   1.000  O
  O9       1.0000 0.82802  0.34932  0.14472  Biso   1.000  O
  O10      1.0000 0.82478  0.14081  0.35813  Biso   1.000  O
  O11      1.0000 0.82895  0.34822  0.83856  Biso   1.000  O
  O12      1.0000 0.82491  0.14336  0.83625  Biso   1.000  O
  O13      1.0000 0.34045  0.14134  0.84108  Biso   1.000  O
  O14      1.0000 0.22396  0.74526  0.44755  Biso   1.000  O
  O15      1.0000 0.43246  0.74849  0.23414  Biso   1.000  O
  O16      1.0000 0.22505  0.74433  0.75371  Biso   1.000  O
  O17      1.0000 0.42991  0.74837  0.75603  Biso   1.000  O
  O18      1.0000 0.43193  0.23283  0.75119  Biso   1.000  O
  O19      1.0000 0.73465  0.23456  0.44755  Biso   1.000  O
  O20      1.0000 0.73790  0.44306  0.23414  Biso   1.000  O
  O21      1.0000 0.73373  0.23565  0.75371  Biso   1.000  O
  O22      1.0000 0.73777  0.44051  0.75603  Biso   1.000  O
  O23      1.0000 0.22223  0.44253  0.75119  Biso   1.000  O
  O24      1.0000 0.33872  0.83862  0.14472  Biso   1.000  O
  O25      1.0000 0.13022  0.83538  0.35813  Biso   1.000  O
  O26      1.0000 0.33763  0.83954  0.83856  Biso   1.000  O
  O27      1.0000 0.13276  0.83551  0.83625  Biso   1.000  O
  O28      1.0000 0.13075  0.35105  0.84108  Biso   1.000  O
  O29      1.0000 0.82610  0.83670  0.14260  Biso   1.000  O
  O30      1.0000 0.82498  0.83558  0.36045  Biso   1.000  O
  O31      1.0000 0.73658  0.74717  0.44967  Biso   1.000  O
  O32      1.0000 0.73770  0.74829  0.23182  Biso   1.000  O
  O33      1.0000 0.89444  0.18487  0.18142  Biso   1.000  O
  O34      1.0000 0.83426  0.24344  0.24311  Biso   1.000  O
  O35      1.0000 0.80917  0.32341  0.20742  Biso   1.000  O
  O36      1.0000 0.80795  0.20341  0.33192  Biso   1.000  O
  O37      1.0000 0.89567  0.18166  0.90207  Biso   1.000  O
  O38      1.0000 0.83791  0.24064  0.84633  Biso   1.000  O
  O39      1.0000 0.81081  0.32181  0.82042  Biso   1.000  O
  O40      1.0000 0.80797  0.20586  0.81860  Biso   1.000  O
  O41      1.0000 0.31414  0.20394  0.82082  Biso   1.000  O
  O42      1.0000 0.38840  0.67883  0.41086  Biso   1.000  O
  O43      1.0000 0.32984  0.73901  0.34916  Biso   1.000  O
  O44      1.0000 0.24987  0.76411  0.38485  Biso   1.000  O
  O45      1.0000 0.36986  0.76533  0.26035  Biso   1.000  O
  O46      1.0000 0.39161  0.67760  0.69020  Biso   1.000  O
  O47      1.0000 0.33264  0.73536  0.74595  Biso   1.000  O
  O48      1.0000 0.25146  0.76248  0.77185  Biso   1.000  O
  O49      1.0000 0.36742  0.76530  0.77367  Biso   1.000  O
  O50      1.0000 0.36933  0.25914  0.77145  Biso   1.000  O
  O51      1.0000 0.66824  0.39900  0.41086  Biso   1.000  O
  O52      1.0000 0.72842  0.34043  0.34916  Biso   1.000  O
  O53      1.0000 0.75351  0.26047  0.38485  Biso   1.000  O
  O54      1.0000 0.75473  0.38046  0.26035  Biso   1.000  O
  O55      1.0000 0.66701  0.40221  0.69020  Biso   1.000  O
  O56      1.0000 0.72477  0.34324  0.74595  Biso   1.000  O
  O57      1.0000 0.75187  0.26206  0.77185  Biso   1.000  O
  O58      1.0000 0.75470  0.37801  0.77367  Biso   1.000  O
  O59      1.0000 0.24854  0.37993  0.77145  Biso   1.000  O
  O60      1.0000 0.17428  0.90504  0.18142  Biso   1.000  O
  O61      1.0000 0.23284  0.84486  0.24311  Biso   1.000  O
  O62      1.0000 0.31281  0.81976  0.20742  Biso   1.000  O
  O63      1.0000 0.19282  0.81855  0.33192  Biso   1.000  O
  O64      1.0000 0.17107  0.90627  0.90207  Biso   1.000  O
  O65      1.0000 0.23004  0.84851  0.84633  Biso   1.000  O
  O66      1.0000 0.31122  0.82140  0.82042  Biso   1.000  O
  O67      1.0000 0.19526  0.81857  0.81860  Biso   1.000  O
  O68      1.0000 0.19335  0.32474  0.82082  Biso   1.000  O
  O69      1.0000 0.89364  0.90424  0.18827  Biso   1.000  O
  O70      1.0000 0.83598  0.84657  0.24089  Biso   1.000  O
  O71      1.0000 0.80856  0.81916  0.20511  Biso   1.000  O
  O72      1.0000 0.80734  0.81794  0.33313  Biso   1.000  O
  O73      1.0000 0.16925  0.17985  0.91014  Biso   1.000  O
  O74      1.0000 0.23145  0.24205  0.84623  Biso   1.000  O
  O75      1.0000 0.66904  0.67964  0.40400  Biso   1.000  O
  O76      1.0000 0.72670  0.73730  0.35138  Biso   1.000  O
  O77      1.0000 0.75412  0.76471  0.38717  Biso   1.000  O
  O78      1.0000 0.75533  0.76593  0.25914  Biso   1.000  O
  O79      1.0000 0.39343  0.40402  0.68213  Biso   1.000  O
  O80      1.0000 0.33123  0.34182  0.74605  Biso   1.000  O
  O81      1.0000 0.91400  0.09879  0.22769  Biso   1.000  O
  O82      1.0000 0.91612  0.22913  0.09653  Biso   1.000  O
  O83      1.0000 0.91260  0.09779  0.92879  Biso   1.000  O
  O84      1.0000 0.91553  0.22612  0.92476  Biso   1.000  O
  O85      1.0000 0.21562  0.09679  0.92758  Biso   1.000  O
  O86      1.0000 0.47449  0.65928  0.36459  Biso   1.000  O
  O87      1.0000 0.34415  0.65715  0.49574  Biso   1.000  O
  O88      1.0000 0.47548  0.66067  0.66349  Biso   1.000  O
  O89      1.0000 0.34716  0.65775  0.66752  Biso   1.000  O
  O90      1.0000 0.47649  0.35766  0.66469  Biso   1.000  O
  O91      1.0000 0.64868  0.48509  0.36459  Biso   1.000  O
  O92      1.0000 0.64656  0.35474  0.49574  Biso   1.000  O
  O93      1.0000 0.65008  0.48608  0.66349  Biso   1.000  O
  O94      1.0000 0.64715  0.35776  0.66752  Biso   1.000  O
  O95      1.0000 0.34706  0.48709  0.66469  Biso   1.000  O
  O96      1.0000 0.08819  0.92460  0.22769  Biso   1.000  O
  O97      1.0000 0.21853  0.92672  0.09653  Biso   1.000  O
  O98      1.0000 0.08720  0.92320  0.92879  Biso   1.000  O
  O99      1.0000 0.21552  0.92613  0.92476  Biso   1.000  O
  O100     1.0000 0.08618  0.22622  0.92758  Biso   1.000  O
  O101     1.0000 0.03356  0.04416  0.04442  Biso   1.000  O
  O102     1.0000 0.91501  0.92561  0.22698  Biso   1.000  O
  O103     1.0000 0.91270  0.92329  0.10460  Biso   1.000  O
  O104     1.0000 0.52912  0.53971  0.54786  Biso   1.000  O
  O105     1.0000 0.64767  0.65827  0.36529  Biso   1.000  O
