data_image0
_cell_length_a       18.1065
_cell_length_b       18.1065
_cell_length_c       18.1065
_cell_angle_alpha    60
_cell_angle_beta     60
_cell_angle_gamma    60

_symmetry_space_group_name_H-M    "P 1"
_symmetry_int_tables_number       1

loop_
  _symmetry_equiv_pos_as_xyz
  'x, y, z'

loop_
  _atom_site_label
  _atom_site_occupancy
  _atom_site_fract_x
  _atom_site_fract_y
  _atom_site_fract_z
  _atom_site_thermal_displace_type
  _atom_site_B_iso_or_equiv
  _atom_site_type_symbol
  C1       1.0000 0.79354  0.61938  0.79354  Biso   1.000  C
  C2       1.0000 0.61938  0.79354  0.79354  Biso   1.000  C
  C3       1.0000 0.20646  0.20646  0.38062  Biso   1.000  C
  C4       1.0000 0.79354  0.79354  0.79354  Biso   1.000  C
  C5       1.0000 0.20646  0.38062  0.20646  Biso   1.000  C
  C6       1.0000 0.20646  0.20646  0.20646  Biso   1.000  C
  C7       1.0000 0.38062  0.20646  0.20646  Biso   1.000  C
  C8       1.0000 0.79354  0.79354  0.61938  Biso   1.000  C
  C9       1.0000 0.41290  0.53690  0.02510  Biso   1.000  C
  C10      1.0000 0.97490  0.46310  0.97490  Biso   1.000  C
  C11      1.0000 0.53690  0.02510  0.02510  Biso   1.000  C
  C12      1.0000 0.94610  0.55390  0.55390  Biso   1.000  C
  C13      1.0000 0.41290  0.02510  0.53690  Biso   1.000  C
  C14      1.0000 0.55390  0.55390  0.94610  Biso   1.000  C
  C15      1.0000 0.38730  0.38730  0.11270  Biso   1.000  C
  C16      1.0000 0.46310  0.58710  0.97490  Biso   1.000  C
  C17      1.0000 0.58710  0.46310  0.97490  Biso   1.000  C
  C18      1.0000 0.94610  0.94610  0.55390  Biso   1.000  C
  C19      1.0000 0.94610  0.55390  0.94610  Biso   1.000  C
  C20      1.0000 0.02510  0.53690  0.41290  Biso   1.000  C
  C21      1.0000 0.02510  0.41290  0.02510  Biso   1.000  C
  C22      1.0000 0.88730  0.61270  0.88730  Biso   1.000  C
  C23      1.0000 0.61270  0.88730  0.61270  Biso   1.000  C
  C24      1.0000 0.38730  0.11270  0.11270  Biso   1.000  C
  C25      1.0000 0.61270  0.88730  0.88730  Biso   1.000  C
  C26      1.0000 0.61270  0.61270  0.88730  Biso   1.000  C
  C27      1.0000 0.53690  0.41290  0.02510  Biso   1.000  C
  C28      1.0000 0.58710  0.97490  0.97490  Biso   1.000  C
  C29      1.0000 0.11270  0.38730  0.11270  Biso   1.000  C
  C30      1.0000 0.46310  0.97490  0.97490  Biso   1.000  C
  C31      1.0000 0.02510  0.41290  0.53690  Biso   1.000  C
  C32      1.0000 0.88730  0.88730  0.61270  Biso   1.000  C
  C33      1.0000 0.46310  0.97490  0.58710  Biso   1.000  C
  C34      1.0000 0.38730  0.11270  0.38730  Biso   1.000  C
  C35      1.0000 0.05390  0.44610  0.05390  Biso   1.000  C
  C36      1.0000 0.41290  0.02510  0.02510  Biso   1.000  C
  C37      1.0000 0.97490  0.97490  0.46310  Biso   1.000  C
  C38      1.0000 0.88730  0.61270  0.61270  Biso   1.000  C
  C39      1.0000 0.53690  0.02510  0.41290  Biso   1.000  C
  C40      1.0000 0.97490  0.97490  0.58710  Biso   1.000  C
  C41      1.0000 0.44610  0.05390  0.44610  Biso   1.000  C
  C42      1.0000 0.02510  0.53690  0.02510  Biso   1.000  C
  C43      1.0000 0.02510  0.02510  0.41290  Biso   1.000  C
  C44      1.0000 0.11270  0.38730  0.38730  Biso   1.000  C
  C45      1.0000 0.02510  0.02510  0.53690  Biso   1.000  C
  C46      1.0000 0.97490  0.46310  0.58710  Biso   1.000  C
  C47      1.0000 0.97490  0.58710  0.46310  Biso   1.000  C
  C48      1.0000 0.55390  0.94610  0.94610  Biso   1.000  C
  C49      1.0000 0.97490  0.58710  0.97490  Biso   1.000  C
  C50      1.0000 0.44610  0.05390  0.05390  Biso   1.000  C
  C51      1.0000 0.05390  0.44610  0.44610  Biso   1.000  C
  C52      1.0000 0.11270  0.11270  0.38730  Biso   1.000  C
  C53      1.0000 0.05390  0.05390  0.44610  Biso   1.000  C
  C54      1.0000 0.55390  0.94610  0.55390  Biso   1.000  C
  C55      1.0000 0.58710  0.97490  0.46310  Biso   1.000  C
  C56      1.0000 0.44610  0.44610  0.05390  Biso   1.000  C
  C57      1.0000 0.13360  0.42978  0.13360  Biso   1.000  C
  C58      1.0000 0.13360  0.42978  0.30302  Biso   1.000  C
  C59      1.0000 0.86640  0.57022  0.86640  Biso   1.000  C
  C60      1.0000 0.30302  0.13360  0.42978  Biso   1.000  C
  C61      1.0000 0.13360  0.13360  0.42978  Biso   1.000  C
  C62      1.0000 0.86640  0.57022  0.69698  Biso   1.000  C
  C63      1.0000 0.69698  0.86640  0.57022  Biso   1.000  C
  C64      1.0000 0.86640  0.86640  0.57022  Biso   1.000  C
  C65      1.0000 0.13360  0.30302  0.13360  Biso   1.000  C
  C66      1.0000 0.42978  0.30302  0.13360  Biso   1.000  C
  C67      1.0000 0.86640  0.69698  0.86640  Biso   1.000  C
  C68      1.0000 0.13360  0.13360  0.30302  Biso   1.000  C
  C69      1.0000 0.69698  0.86640  0.86640  Biso   1.000  C
  C70      1.0000 0.57022  0.69698  0.86640  Biso   1.000  C
  C71      1.0000 0.57022  0.86640  0.86640  Biso   1.000  C
  C72      1.0000 0.13360  0.30302  0.42978  Biso   1.000  C
  C73      1.0000 0.25000  0.25000  0.25000  Biso   1.000  C
  C74      1.0000 0.30302  0.42978  0.13360  Biso   1.000  C
  C75      1.0000 0.69698  0.57022  0.86640  Biso   1.000  C
  C76      1.0000 0.57022  0.86640  0.69698  Biso   1.000  C
  C77      1.0000 0.42978  0.13360  0.13360  Biso   1.000  C
  C78      1.0000 0.86640  0.86640  0.69698  Biso   1.000  C
  C79      1.0000 0.75000  0.75000  0.75000  Biso   1.000  C
  C80      1.0000 0.30302  0.13360  0.13360  Biso   1.000  C
  C81      1.0000 0.86640  0.69698  0.57022  Biso   1.000  C
  C82      1.0000 0.42978  0.13360  0.30302  Biso   1.000  C
  C83      1.0000 0.33611  0.56917  0.04736  Biso   1.000  C
  C84      1.0000 0.95490  0.42685  0.95490  Biso   1.000  C
  C85      1.0000 0.56917  0.04736  0.04736  Biso   1.000  C
  C86      1.0000 0.33611  0.04736  0.56917  Biso   1.000  C
  C87      1.0000 0.43083  0.66389  0.95264  Biso   1.000  C
  C88      1.0000 0.66335  0.42685  0.95490  Biso   1.000  C
  C89      1.0000 0.04736  0.56917  0.33611  Biso   1.000  C
  C90      1.0000 0.04736  0.33611  0.04736  Biso   1.000  C
  C91      1.0000 0.56917  0.33611  0.04736  Biso   1.000  C
  C92      1.0000 0.66389  0.95264  0.95264  Biso   1.000  C
  C93      1.0000 0.43083  0.95264  0.95264  Biso   1.000  C
  C94      1.0000 0.04736  0.33611  0.56917  Biso   1.000  C
  C95      1.0000 0.43083  0.95264  0.66389  Biso   1.000  C
  C96      1.0000 0.33611  0.04736  0.04736  Biso   1.000  C
  C97      1.0000 0.95490  0.95490  0.42685  Biso   1.000  C
  C98      1.0000 0.57315  0.04510  0.33665  Biso   1.000  C
  C99      1.0000 0.95490  0.95490  0.66335  Biso   1.000  C
  C100     1.0000 0.04510  0.57315  0.04510  Biso   1.000  C
  C101     1.0000 0.04736  0.04736  0.33611  Biso   1.000  C
  C102     1.0000 0.04736  0.04736  0.56917  Biso   1.000  C
  C103     1.0000 0.95490  0.42685  0.66335  Biso   1.000  C
  C104     1.0000 0.95264  0.66389  0.43083  Biso   1.000  C
  C105     1.0000 0.95490  0.66335  0.95490  Biso   1.000  C
  C106     1.0000 0.66389  0.95264  0.43083  Biso   1.000  C
  O1       1.0000 0.16569  0.00000  0.00000  Biso   1.000  O
  O2       1.0000 0.57354  0.40785  0.59213  Biso   1.000  O
  O3       1.0000 0.39778  0.58361  0.59213  Biso   1.000  O
  O4       1.0000 0.98992  0.17576  0.00000  Biso   1.000  O
  O5       1.0000 0.98972  0.99980  0.17590  Biso   1.000  O
  O6       1.0000 0.98986  0.99993  0.99979  Biso   1.000  O
  O7       1.0000 0.57374  0.58381  0.41623  Biso   1.000  O
  O8       1.0000 0.57361  0.58368  0.59234  Biso   1.000  O
  O9       1.0000 0.82590  0.35211  0.14253  Biso   1.000  O
  O10      1.0000 0.82275  0.14230  0.35816  Biso   1.000  O
  O11      1.0000 0.82954  0.35011  0.83759  Biso   1.000  O
  O12      1.0000 0.82903  0.14111  0.83224  Biso   1.000  O
  O13      1.0000 0.34115  0.14172  0.83940  Biso   1.000  O
  O14      1.0000 0.22143  0.74765  0.44960  Biso   1.000  O
  O15      1.0000 0.43124  0.75078  0.23397  Biso   1.000  O
  O16      1.0000 0.22343  0.74400  0.75455  Biso   1.000  O
  O17      1.0000 0.43242  0.74450  0.75989  Biso   1.000  O
  O18      1.0000 0.43182  0.23239  0.75273  Biso   1.000  O
  O19      1.0000 0.73757  0.23150  0.44960  Biso   1.000  O
  O20      1.0000 0.74071  0.44131  0.23397  Biso   1.000  O
  O21      1.0000 0.73392  0.23350  0.75455  Biso   1.000  O
  O22      1.0000 0.73443  0.44250  0.75989  Biso   1.000  O
  O23      1.0000 0.22232  0.44189  0.75273  Biso   1.000  O
  O24      1.0000 0.34204  0.83597  0.14253  Biso   1.000  O
  O25      1.0000 0.13222  0.83283  0.35816  Biso   1.000  O
  O26      1.0000 0.34004  0.83961  0.83759  Biso   1.000  O
  O27      1.0000 0.13104  0.83911  0.83224  Biso   1.000  O
  O28      1.0000 0.13165  0.35122  0.83940  Biso   1.000  O
  O29      1.0000 0.82720  0.83728  0.14183  Biso   1.000  O
  O30      1.0000 0.82447  0.83454  0.36210  Biso   1.000  O
  O31      1.0000 0.73626  0.74633  0.45030  Biso   1.000  O
  O32      1.0000 0.73900  0.74907  0.23004  Biso   1.000  O
  O33      1.0000 0.89443  0.18555  0.18155  Biso   1.000  O
  O34      1.0000 0.83516  0.24300  0.24244  Biso   1.000  O
  O35      1.0000 0.80886  0.32539  0.20534  Biso   1.000  O
  O36      1.0000 0.80703  0.20500  0.33236  Biso   1.000  O
  O37      1.0000 0.89485  0.18435  0.90271  Biso   1.000  O
  O38      1.0000 0.83851  0.24051  0.84535  Biso   1.000  O
  O39      1.0000 0.81049  0.32420  0.81994  Biso   1.000  O
  O40      1.0000 0.81008  0.20361  0.81652  Biso   1.000  O
  O41      1.0000 0.31463  0.20432  0.81974  Biso   1.000  O
  O42      1.0000 0.38799  0.67910  0.41059  Biso   1.000  O
  O43      1.0000 0.33054  0.73838  0.34970  Biso   1.000  O
  O44      1.0000 0.24814  0.76468  0.38679  Biso   1.000  O
  O45      1.0000 0.36854  0.76651  0.25977  Biso   1.000  O
  O46      1.0000 0.38918  0.67868  0.68942  Biso   1.000  O
  O47      1.0000 0.33303  0.73503  0.74678  Biso   1.000  O
  O48      1.0000 0.24933  0.76305  0.77219  Biso   1.000  O
  O49      1.0000 0.36993  0.76345  0.77562  Biso   1.000  O
  O50      1.0000 0.36922  0.25890  0.77239  Biso   1.000  O
  O51      1.0000 0.66903  0.39806  0.41059  Biso   1.000  O
  O52      1.0000 0.72831  0.34061  0.34970  Biso   1.000  O
  O53      1.0000 0.75461  0.25822  0.38679  Biso   1.000  O
  O54      1.0000 0.75644  0.37861  0.25977  Biso   1.000  O
  O55      1.0000 0.66861  0.39926  0.68942  Biso   1.000  O
  O56      1.0000 0.72496  0.34311  0.74678  Biso   1.000  O
  O57      1.0000 0.75297  0.25941  0.77219  Biso   1.000  O
  O58      1.0000 0.75338  0.38000  0.77562  Biso   1.000  O
  O59      1.0000 0.24883  0.37929  0.77239  Biso   1.000  O
  O60      1.0000 0.17548  0.90451  0.18155  Biso   1.000  O
  O61      1.0000 0.23293  0.84523  0.24244  Biso   1.000  O
  O62      1.0000 0.31532  0.81893  0.20534  Biso   1.000  O
  O63      1.0000 0.19492  0.81710  0.33236  Biso   1.000  O
  O64      1.0000 0.17428  0.90493  0.90271  Biso   1.000  O
  O65      1.0000 0.23043  0.84858  0.84535  Biso   1.000  O
  O66      1.0000 0.31413  0.82056  0.81994  Biso   1.000  O
  O67      1.0000 0.19354  0.82016  0.81652  Biso   1.000  O
  O68      1.0000 0.19425  0.32471  0.81974  Biso   1.000  O
  O69      1.0000 0.89272  0.90280  0.18820  Biso   1.000  O
  O70      1.0000 0.83617  0.84624  0.24163  Biso   1.000  O
  O71      1.0000 0.80936  0.81943  0.20433  Biso   1.000  O
  O72      1.0000 0.80693  0.81700  0.33437  Biso   1.000  O
  O73      1.0000 0.17135  0.18143  0.90795  Biso   1.000  O
  O74      1.0000 0.23204  0.24212  0.84545  Biso   1.000  O
  O75      1.0000 0.67074  0.68081  0.40393  Biso   1.000  O
  O76      1.0000 0.72730  0.73737  0.35050  Biso   1.000  O
  O77      1.0000 0.75411  0.76418  0.38780  Biso   1.000  O
  O78      1.0000 0.75653  0.76661  0.25776  Biso   1.000  O
  O79      1.0000 0.39211  0.40218  0.68418  Biso   1.000  O
  O80      1.0000 0.33142  0.34149  0.74668  Biso   1.000  O
  O81      1.0000 0.91469  0.09916  0.22540  Biso   1.000  O
  O82      1.0000 0.91712  0.22638  0.09818  Biso   1.000  O
  O83      1.0000 0.91441  0.09807  0.92821  Biso   1.000  O
  O84      1.0000 0.91662  0.22488  0.92539  Biso   1.000  O
  O85      1.0000 0.21410  0.09776  0.92771  Biso   1.000  O
  O86      1.0000 0.47438  0.65884  0.36673  Biso   1.000  O
  O87      1.0000 0.34716  0.65642  0.49395  Biso   1.000  O
  O88      1.0000 0.47547  0.65913  0.66392  Biso   1.000  O
  O89      1.0000 0.34866  0.65691  0.66674  Biso   1.000  O
  O90      1.0000 0.47578  0.35944  0.66442  Biso   1.000  O
  O91      1.0000 0.64877  0.48445  0.36673  Biso   1.000  O
  O92      1.0000 0.64635  0.35723  0.49395  Biso   1.000  O
  O93      1.0000 0.64906  0.48554  0.66392  Biso   1.000  O
  O94      1.0000 0.64684  0.35873  0.66674  Biso   1.000  O
  O95      1.0000 0.34937  0.48585  0.66442  Biso   1.000  O
  O96      1.0000 0.08908  0.92477  0.22540  Biso   1.000  O
  O97      1.0000 0.21630  0.92719  0.09818  Biso   1.000  O
  O98      1.0000 0.08799  0.92448  0.92821  Biso   1.000  O
  O99      1.0000 0.21480  0.92670  0.92539  Biso   1.000  O
  O100     1.0000 0.08769  0.22417  0.92771  Biso   1.000  O
  O101     1.0000 0.03365  0.04373  0.04425  Biso   1.000  O
  O102     1.0000 0.91611  0.92618  0.22439  Biso   1.000  O
  O103     1.0000 0.91450  0.92457  0.10292  Biso   1.000  O
  O104     1.0000 0.52981  0.53988  0.54789  Biso   1.000  O
  O105     1.0000 0.64736  0.65743  0.36774  Biso   1.000  O
