data_image0
_cell_length_a       18.1065
_cell_length_b       18.1065
_cell_length_c       18.1065
_cell_angle_alpha    60
_cell_angle_beta     60
_cell_angle_gamma    60

_symmetry_space_group_name_H-M    "P 1"
_symmetry_int_tables_number       1

loop_
  _symmetry_equiv_pos_as_xyz
  'x, y, z'

loop_
  _atom_site_label
  _atom_site_occupancy
  _atom_site_fract_x
  _atom_site_fract_y
  _atom_site_fract_z
  _atom_site_thermal_displace_type
  _atom_site_B_iso_or_equiv
  _atom_site_type_symbol
  Zn1      1.0000 0.79354  0.61938  0.79354  Biso   1.000  Zn
  Zn2      1.0000 0.61938  0.79354  0.79354  Biso   1.000  Zn
  Zn3      1.0000 0.20646  0.20646  0.38062  Biso   1.000  Zn
  Zn4      1.0000 0.79354  0.79354  0.79354  Biso   1.000  Zn
  Zn5      1.0000 0.20646  0.38062  0.20646  Biso   1.000  Zn
  Zn6      1.0000 0.20646  0.20646  0.20646  Biso   1.000  Zn
  Zn7      1.0000 0.38062  0.20646  0.20646  Biso   1.000  Zn
  Zn8      1.0000 0.79354  0.79354  0.61938  Biso   1.000  Zn
  C1       1.0000 0.41290  0.53690  0.02510  Biso   1.000  C
  C2       1.0000 0.97490  0.46310  0.97490  Biso   1.000  C
  C3       1.0000 0.53690  0.02510  0.02510  Biso   1.000  C
  C4       1.0000 0.94610  0.55390  0.55390  Biso   1.000  C
  C5       1.0000 0.41290  0.02510  0.53690  Biso   1.000  C
  C6       1.0000 0.55390  0.55390  0.94610  Biso   1.000  C
  C7       1.0000 0.38730  0.38730  0.11270  Biso   1.000  C
  C8       1.0000 0.46310  0.58710  0.97490  Biso   1.000  C
  C9       1.0000 0.58710  0.46310  0.97490  Biso   1.000  C
  C10      1.0000 0.94610  0.94610  0.55390  Biso   1.000  C
  C11      1.0000 0.94610  0.55390  0.94610  Biso   1.000  C
  C12      1.0000 0.02510  0.53690  0.41290  Biso   1.000  C
  C13      1.0000 0.02510  0.41290  0.02510  Biso   1.000  C
  C14      1.0000 0.88730  0.61270  0.88730  Biso   1.000  C
  C15      1.0000 0.61270  0.88730  0.61270  Biso   1.000  C
  C16      1.0000 0.38730  0.11270  0.11270  Biso   1.000  C
  C17      1.0000 0.61270  0.88730  0.88730  Biso   1.000  C
  C18      1.0000 0.61270  0.61270  0.88730  Biso   1.000  C
  C19      1.0000 0.53690  0.41290  0.02510  Biso   1.000  C
  C20      1.0000 0.58710  0.97490  0.97490  Biso   1.000  C
  C21      1.0000 0.11270  0.38730  0.11270  Biso   1.000  C
  C22      1.0000 0.46310  0.97490  0.97490  Biso   1.000  C
  C23      1.0000 0.02510  0.41290  0.53690  Biso   1.000  C
  C24      1.0000 0.88730  0.88730  0.61270  Biso   1.000  C
  C25      1.0000 0.46310  0.97490  0.58710  Biso   1.000  C
  C26      1.0000 0.38730  0.11270  0.38730  Biso   1.000  C
  C27      1.0000 0.05390  0.44610  0.05390  Biso   1.000  C
  C28      1.0000 0.41290  0.02510  0.02510  Biso   1.000  C
  C29      1.0000 0.97490  0.97490  0.46310  Biso   1.000  C
  C30      1.0000 0.88730  0.61270  0.61270  Biso   1.000  C
  C31      1.0000 0.53690  0.02510  0.41290  Biso   1.000  C
  C32      1.0000 0.97490  0.97490  0.58710  Biso   1.000  C
  C33      1.0000 0.44610  0.05390  0.44610  Biso   1.000  C
  C34      1.0000 0.02510  0.53690  0.02510  Biso   1.000  C
  C35      1.0000 0.02510  0.02510  0.41290  Biso   1.000  C
  C36      1.0000 0.11270  0.38730  0.38730  Biso   1.000  C
  C37      1.0000 0.02510  0.02510  0.53690  Biso   1.000  C
  C38      1.0000 0.97490  0.46310  0.58710  Biso   1.000  C
  C39      1.0000 0.97490  0.58710  0.46310  Biso   1.000  C
  C40      1.0000 0.55390  0.94610  0.94610  Biso   1.000  C
  C41      1.0000 0.97490  0.58710  0.97490  Biso   1.000  C
  C42      1.0000 0.44610  0.05390  0.05390  Biso   1.000  C
  C43      1.0000 0.05390  0.44610  0.44610  Biso   1.000  C
  C44      1.0000 0.11270  0.11270  0.38730  Biso   1.000  C
  C45      1.0000 0.05390  0.05390  0.44610  Biso   1.000  C
  C46      1.0000 0.55390  0.94610  0.55390  Biso   1.000  C
  C47      1.0000 0.58710  0.97490  0.46310  Biso   1.000  C
  C48      1.0000 0.44610  0.44610  0.05390  Biso   1.000  C
  O1       1.0000 0.13360  0.42978  0.13360  Biso   1.000  O
  O2       1.0000 0.13360  0.42978  0.30302  Biso   1.000  O
  O3       1.0000 0.86640  0.57022  0.86640  Biso   1.000  O
  O4       1.0000 0.30302  0.13360  0.42978  Biso   1.000  O
  O5       1.0000 0.13360  0.13360  0.42978  Biso   1.000  O
  O6       1.0000 0.86640  0.57022  0.69698  Biso   1.000  O
  O7       1.0000 0.69698  0.86640  0.57022  Biso   1.000  O
  O8       1.0000 0.86640  0.86640  0.57022  Biso   1.000  O
  O9       1.0000 0.13360  0.30302  0.13360  Biso   1.000  O
  O10      1.0000 0.42978  0.30302  0.13360  Biso   1.000  O
  O11      1.0000 0.86640  0.69698  0.86640  Biso   1.000  O
  O12      1.0000 0.13360  0.13360  0.30302  Biso   1.000  O
  O13      1.0000 0.69698  0.86640  0.86640  Biso   1.000  O
  O14      1.0000 0.57022  0.69698  0.86640  Biso   1.000  O
  O15      1.0000 0.57022  0.86640  0.86640  Biso   1.000  O
  O16      1.0000 0.13360  0.30302  0.42978  Biso   1.000  O
  O17      1.0000 0.25000  0.25000  0.25000  Biso   1.000  O
  O18      1.0000 0.30302  0.42978  0.13360  Biso   1.000  O
  O19      1.0000 0.69698  0.57022  0.86640  Biso   1.000  O
  O20      1.0000 0.57022  0.86640  0.69698  Biso   1.000  O
  O21      1.0000 0.42978  0.13360  0.13360  Biso   1.000  O
  O22      1.0000 0.86640  0.86640  0.69698  Biso   1.000  O
  O23      1.0000 0.75000  0.75000  0.75000  Biso   1.000  O
  O24      1.0000 0.30302  0.13360  0.13360  Biso   1.000  O
  O25      1.0000 0.86640  0.69698  0.57022  Biso   1.000  O
  O26      1.0000 0.42978  0.13360  0.30302  Biso   1.000  O
  H1       1.0000 0.33611  0.56917  0.04736  Biso   1.000  H
  H2       1.0000 0.95490  0.42685  0.95490  Biso   1.000  H
  H3       1.0000 0.56917  0.04736  0.04736  Biso   1.000  H
  H4       1.0000 0.33611  0.04736  0.56917  Biso   1.000  H
  H5       1.0000 0.43083  0.66389  0.95264  Biso   1.000  H
  H6       1.0000 0.66335  0.42685  0.95490  Biso   1.000  H
  H7       1.0000 0.04736  0.56917  0.33611  Biso   1.000  H
  H8       1.0000 0.04736  0.33611  0.04736  Biso   1.000  H
  H9       1.0000 0.56917  0.33611  0.04736  Biso   1.000  H
  H10      1.0000 0.66389  0.95264  0.95264  Biso   1.000  H
  H11      1.0000 0.43083  0.95264  0.95264  Biso   1.000  H
  H12      1.0000 0.04736  0.33611  0.56917  Biso   1.000  H
  H13      1.0000 0.43083  0.95264  0.66389  Biso   1.000  H
  H14      1.0000 0.33611  0.04736  0.04736  Biso   1.000  H
  H15      1.0000 0.95490  0.95490  0.42685  Biso   1.000  H
  H16      1.0000 0.57315  0.04510  0.33665  Biso   1.000  H
  H17      1.0000 0.95490  0.95490  0.66335  Biso   1.000  H
  H18      1.0000 0.04510  0.57315  0.04510  Biso   1.000  H
  H19      1.0000 0.04736  0.04736  0.33611  Biso   1.000  H
  H20      1.0000 0.04736  0.04736  0.56917  Biso   1.000  H
  H21      1.0000 0.95490  0.42685  0.66335  Biso   1.000  H
  H22      1.0000 0.95264  0.66389  0.43083  Biso   1.000  H
  H23      1.0000 0.95490  0.66335  0.95490  Biso   1.000  H
  H24      1.0000 0.66389  0.95264  0.43083  Biso   1.000  H
  Zn9      1.0000 0.96086  0.00320  0.94698  Biso   1.000  Zn
  Zn10     1.0000 0.54805  0.59826  0.54402  Biso   1.000  Zn
  Zn11     1.0000 0.96038  0.17921  0.94767  Biso   1.000  Zn
  Zn12     1.0000 0.96052  0.00345  0.12313  Biso   1.000  Zn
  Zn13     1.0000 0.13628  0.00389  0.94767  Biso   1.000  Zn
  Zn14     1.0000 0.37263  0.59757  0.54333  Biso   1.000  Zn
  Zn15     1.0000 0.54838  0.59801  0.36787  Biso   1.000  Zn
  Zn16     1.0000 0.54853  0.42226  0.54333  Biso   1.000  Zn
  H25      1.0000 0.79245  0.14174  0.31182  Biso   1.000  H
  H26      1.0000 0.32449  0.83694  0.08654  Biso   1.000  H
  H27      1.0000 0.09840  0.36816  0.78092  Biso   1.000  H
  H28      1.0000 0.41006  0.76509  0.17917  Biso   1.000  H
  H29      1.0000 0.71664  0.23407  0.40446  Biso   1.000  H
  H30      1.0000 0.18466  0.45840  0.71008  Biso   1.000  H
  H31      1.0000 0.71645  0.45972  0.17917  Biso   1.000  H
  H32      1.0000 0.18441  0.76453  0.40446  Biso   1.000  H
  H33      1.0000 0.41051  0.23330  0.71008  Biso   1.000  H
  H34      1.0000 0.09884  0.83637  0.31182  Biso   1.000  H
  H35      1.0000 0.79227  0.36740  0.08654  Biso   1.000  H
  H36      1.0000 0.32424  0.14307  0.78092  Biso   1.000  H
  H37      1.0000 0.80031  0.36135  0.78722  Biso   1.000  H
  H38      1.0000 0.79461  0.14409  0.78001  Biso   1.000  H
  H39      1.0000 0.80075  0.84268  0.30502  Biso   1.000  H
  H40      1.0000 0.79487  0.83602  0.08756  Biso   1.000  H
  H41      1.0000 0.31940  0.84398  0.78722  Biso   1.000  H
  H42      1.0000 0.10293  0.83679  0.78001  Biso   1.000  H
  H43      1.0000 0.18950  0.75749  0.70378  Biso   1.000  H
  H44      1.0000 0.40597  0.76468  0.71099  Biso   1.000  H
  H45      1.0000 0.70816  0.75878  0.18598  Biso   1.000  H
  H46      1.0000 0.71404  0.76545  0.40344  Biso   1.000  H
  H47      1.0000 0.70859  0.24012  0.70378  Biso   1.000  H
  H48      1.0000 0.71429  0.45738  0.71099  Biso   1.000  H
  C49      1.0000 0.77713  0.20433  0.28481  Biso   1.000  C
  C50      1.0000 0.29733  0.82166  0.14911  Biso   1.000  C
  C51      1.0000 0.16097  0.34121  0.76579  Biso   1.000  C
  C52      1.0000 0.34750  0.78015  0.20619  Biso   1.000  C
  C53      1.0000 0.73189  0.26122  0.34189  Biso   1.000  C
  C54      1.0000 0.21190  0.39584  0.72521  Biso   1.000  C
  C55      1.0000 0.73178  0.39714  0.20619  Biso   1.000  C
  C56      1.0000 0.21158  0.77981  0.34189  Biso   1.000  C
  C57      1.0000 0.34793  0.26026  0.72521  Biso   1.000  C
  C58      1.0000 0.16140  0.82132  0.28481  Biso   1.000  C
  C59      1.0000 0.77701  0.34025  0.14911  Biso   1.000  C
  C60      1.0000 0.29701  0.20562  0.76579  Biso   1.000  C
  C61      1.0000 0.86430  0.19019  0.85070  Biso   1.000  C
  C62      1.0000 0.80621  0.24503  0.79240  Biso   1.000  C
  C63      1.0000 0.78096  0.33775  0.76751  Biso   1.000  C
  C64      1.0000 0.77760  0.20654  0.76325  Biso   1.000  C
  C65      1.0000 0.86453  0.90654  0.13387  Biso   1.000  C
  C66      1.0000 0.80654  0.84815  0.18862  Biso   1.000  C
  C67      1.0000 0.78139  0.82305  0.28135  Biso   1.000  C
  C68      1.0000 0.77793  0.81912  0.15002  Biso   1.000  C
  C69      1.0000 0.14818  0.90725  0.85070  Biso   1.000  C
  C70      1.0000 0.20342  0.84914  0.79240  Biso   1.000  C
  C71      1.0000 0.29608  0.82434  0.76751  Biso   1.000  C
  C72      1.0000 0.16535  0.82009  0.76325  Biso   1.000  C
  C73      1.0000 0.36072  0.69422  0.64030  Biso   1.000  C
  C74      1.0000 0.30548  0.75233  0.69860  Biso   1.000  C
  C75      1.0000 0.21282  0.77713  0.72349  Biso   1.000  C
  C76      1.0000 0.34356  0.78138  0.72775  Biso   1.000  C
  C77      1.0000 0.64437  0.69493  0.35712  Biso   1.000  C
  C78      1.0000 0.70236  0.75332  0.30238  Biso   1.000  C
  C79      1.0000 0.72751  0.77841  0.20965  Biso   1.000  C
  C80      1.0000 0.73098  0.78235  0.34097  Biso   1.000  C
  C81      1.0000 0.64461  0.41128  0.64030  Biso   1.000  C
  C82      1.0000 0.70269  0.35643  0.69860  Biso   1.000  C
  C83      1.0000 0.72794  0.26371  0.72349  Biso   1.000  C
  C84      1.0000 0.73130  0.39492  0.72775  Biso   1.000  C
  C85      1.0000 0.86307  0.18877  0.13316  Biso   1.000  C
  C86      1.0000 0.81001  0.24247  0.18705  Biso   1.000  C
  C87      1.0000 0.14584  0.90695  0.13316  Biso   1.000  C
  C88      1.0000 0.19953  0.85424  0.18705  Biso   1.000  C
  C89      1.0000 0.14560  0.18948  0.85110  Biso   1.000  C
  C90      1.0000 0.19921  0.24345  0.79849  Biso   1.000  C
  C91      1.0000 0.36307  0.69452  0.35784  Biso   1.000  C
  C92      1.0000 0.30937  0.74722  0.30395  Biso   1.000  C
  C93      1.0000 0.64583  0.41270  0.35784  Biso   1.000  C
  C94      1.0000 0.69889  0.35899  0.30395  Biso   1.000  C
  C95      1.0000 0.36330  0.41199  0.63989  Biso   1.000  C
  C96      1.0000 0.30969  0.35802  0.69251  Biso   1.000  C
  O27      1.0000 0.88720  0.22775  0.04357  Biso   1.000  O
  O28      1.0000 0.05623  0.93079  0.17195  Biso   1.000  O
  O29      1.0000 0.18468  0.09990  0.87507  Biso   1.000  O
  O30      1.0000 0.32408  0.67036  0.44743  Biso   1.000  O
  O31      1.0000 0.62160  0.50231  0.31905  Biso   1.000  O
  O32      1.0000 0.45292  0.37329  0.61593  Biso   1.000  O
  O33      1.0000 0.62171  0.37371  0.44743  Biso   1.000  O
  O34      1.0000 0.45268  0.67068  0.31905  Biso   1.000  O
  O35      1.0000 0.32422  0.50157  0.61593  Biso   1.000  O
  O36      1.0000 0.18482  0.93111  0.04357  Biso   1.000  O
  O37      1.0000 0.88730  0.09915  0.17195  Biso   1.000  O
  O38      1.0000 0.05598  0.22817  0.87507  Biso   1.000  O
  O39      1.0000 0.00625  0.04920  0.99313  Biso   1.000  O
  O40      1.0000 0.50265  0.55226  0.49787  Biso   1.000  O
  O41      1.0000 0.88782  0.10092  0.87386  Biso   1.000  O
  O42      1.0000 0.88667  0.22880  0.87355  Biso   1.000  O
  O43      1.0000 0.88796  0.92990  0.04459  Biso   1.000  O
  O44      1.0000 0.88692  0.92928  0.17257  Biso   1.000  O
  O45      1.0000 0.05898  0.93033  0.87386  Biso   1.000  O
  O46      1.0000 0.18643  0.93002  0.87355  Biso   1.000  O
  O47      1.0000 0.44992  0.67114  0.61714  Biso   1.000  O
  O48      1.0000 0.32247  0.67144  0.61745  Biso   1.000  O
  O49      1.0000 0.62094  0.67157  0.44640  Biso   1.000  O
  O50      1.0000 0.62199  0.67219  0.31843  Biso   1.000  O
  O51      1.0000 0.62109  0.50054  0.61714  Biso   1.000  O
