data_image0
_cell_length_a       18.1065
_cell_length_b       18.1065
_cell_length_c       18.1065
_cell_angle_alpha    60
_cell_angle_beta     60
_cell_angle_gamma    60

_symmetry_space_group_name_H-M    "P 1"
_symmetry_int_tables_number       1

loop_
  _symmetry_equiv_pos_as_xyz
  'x, y, z'

loop_
  _atom_site_label
  _atom_site_occupancy
  _atom_site_fract_x
  _atom_site_fract_y
  _atom_site_fract_z
  _atom_site_thermal_displace_type
  _atom_site_B_iso_or_equiv
  _atom_site_type_symbol
  Zn1      1.0000 0.79354  0.61938  0.79354  Biso   1.000  Zn
  Zn2      1.0000 0.61938  0.79354  0.79354  Biso   1.000  Zn
  Zn3      1.0000 0.20646  0.20646  0.38062  Biso   1.000  Zn
  Zn4      1.0000 0.79354  0.79354  0.79354  Biso   1.000  Zn
  Zn5      1.0000 0.20646  0.38062  0.20646  Biso   1.000  Zn
  Zn6      1.0000 0.20646  0.20646  0.20646  Biso   1.000  Zn
  Zn7      1.0000 0.38062  0.20646  0.20646  Biso   1.000  Zn
  Zn8      1.0000 0.79354  0.79354  0.61938  Biso   1.000  Zn
  C1       1.0000 0.41290  0.53690  0.02510  Biso   1.000  C
  C2       1.0000 0.97490  0.46310  0.97490  Biso   1.000  C
  C3       1.0000 0.53690  0.02510  0.02510  Biso   1.000  C
  C4       1.0000 0.94610  0.55390  0.55390  Biso   1.000  C
  C5       1.0000 0.41290  0.02510  0.53690  Biso   1.000  C
  C6       1.0000 0.55390  0.55390  0.94610  Biso   1.000  C
  C7       1.0000 0.38730  0.38730  0.11270  Biso   1.000  C
  C8       1.0000 0.46310  0.58710  0.97490  Biso   1.000  C
  C9       1.0000 0.58710  0.46310  0.97490  Biso   1.000  C
  C10      1.0000 0.94610  0.94610  0.55390  Biso   1.000  C
  C11      1.0000 0.94610  0.55390  0.94610  Biso   1.000  C
  C12      1.0000 0.02510  0.53690  0.41290  Biso   1.000  C
  C13      1.0000 0.02510  0.41290  0.02510  Biso   1.000  C
  C14      1.0000 0.88730  0.61270  0.88730  Biso   1.000  C
  C15      1.0000 0.61270  0.88730  0.61270  Biso   1.000  C
  C16      1.0000 0.38730  0.11270  0.11270  Biso   1.000  C
  C17      1.0000 0.61270  0.88730  0.88730  Biso   1.000  C
  C18      1.0000 0.61270  0.61270  0.88730  Biso   1.000  C
  C19      1.0000 0.53690  0.41290  0.02510  Biso   1.000  C
  C20      1.0000 0.58710  0.97490  0.97490  Biso   1.000  C
  C21      1.0000 0.11270  0.38730  0.11270  Biso   1.000  C
  C22      1.0000 0.46310  0.97490  0.97490  Biso   1.000  C
  C23      1.0000 0.02510  0.41290  0.53690  Biso   1.000  C
  C24      1.0000 0.88730  0.88730  0.61270  Biso   1.000  C
  C25      1.0000 0.46310  0.97490  0.58710  Biso   1.000  C
  C26      1.0000 0.38730  0.11270  0.38730  Biso   1.000  C
  C27      1.0000 0.05390  0.44610  0.05390  Biso   1.000  C
  C28      1.0000 0.41290  0.02510  0.02510  Biso   1.000  C
  C29      1.0000 0.97490  0.97490  0.46310  Biso   1.000  C
  C30      1.0000 0.88730  0.61270  0.61270  Biso   1.000  C
  C31      1.0000 0.53690  0.02510  0.41290  Biso   1.000  C
  C32      1.0000 0.97490  0.97490  0.58710  Biso   1.000  C
  C33      1.0000 0.44610  0.05390  0.44610  Biso   1.000  C
  C34      1.0000 0.02510  0.53690  0.02510  Biso   1.000  C
  C35      1.0000 0.02510  0.02510  0.41290  Biso   1.000  C
  C36      1.0000 0.11270  0.38730  0.38730  Biso   1.000  C
  C37      1.0000 0.02510  0.02510  0.53690  Biso   1.000  C
  C38      1.0000 0.97490  0.46310  0.58710  Biso   1.000  C
  C39      1.0000 0.97490  0.58710  0.46310  Biso   1.000  C
  C40      1.0000 0.55390  0.94610  0.94610  Biso   1.000  C
  C41      1.0000 0.97490  0.58710  0.97490  Biso   1.000  C
  C42      1.0000 0.44610  0.05390  0.05390  Biso   1.000  C
  C43      1.0000 0.05390  0.44610  0.44610  Biso   1.000  C
  C44      1.0000 0.11270  0.11270  0.38730  Biso   1.000  C
  C45      1.0000 0.05390  0.05390  0.44610  Biso   1.000  C
  C46      1.0000 0.55390  0.94610  0.55390  Biso   1.000  C
  C47      1.0000 0.58710  0.97490  0.46310  Biso   1.000  C
  C48      1.0000 0.44610  0.44610  0.05390  Biso   1.000  C
  O1       1.0000 0.13360  0.42978  0.13360  Biso   1.000  O
  O2       1.0000 0.13360  0.42978  0.30302  Biso   1.000  O
  O3       1.0000 0.86640  0.57022  0.86640  Biso   1.000  O
  O4       1.0000 0.30302  0.13360  0.42978  Biso   1.000  O
  O5       1.0000 0.13360  0.13360  0.42978  Biso   1.000  O
  O6       1.0000 0.86640  0.57022  0.69698  Biso   1.000  O
  O7       1.0000 0.69698  0.86640  0.57022  Biso   1.000  O
  O8       1.0000 0.86640  0.86640  0.57022  Biso   1.000  O
  O9       1.0000 0.13360  0.30302  0.13360  Biso   1.000  O
  O10      1.0000 0.42978  0.30302  0.13360  Biso   1.000  O
  O11      1.0000 0.86640  0.69698  0.86640  Biso   1.000  O
  O12      1.0000 0.13360  0.13360  0.30302  Biso   1.000  O
  O13      1.0000 0.69698  0.86640  0.86640  Biso   1.000  O
  O14      1.0000 0.57022  0.69698  0.86640  Biso   1.000  O
  O15      1.0000 0.57022  0.86640  0.86640  Biso   1.000  O
  O16      1.0000 0.13360  0.30302  0.42978  Biso   1.000  O
  O17      1.0000 0.25000  0.25000  0.25000  Biso   1.000  O
  O18      1.0000 0.30302  0.42978  0.13360  Biso   1.000  O
  O19      1.0000 0.69698  0.57022  0.86640  Biso   1.000  O
  O20      1.0000 0.57022  0.86640  0.69698  Biso   1.000  O
  O21      1.0000 0.42978  0.13360  0.13360  Biso   1.000  O
  O22      1.0000 0.86640  0.86640  0.69698  Biso   1.000  O
  O23      1.0000 0.75000  0.75000  0.75000  Biso   1.000  O
  O24      1.0000 0.30302  0.13360  0.13360  Biso   1.000  O
  O25      1.0000 0.86640  0.69698  0.57022  Biso   1.000  O
  O26      1.0000 0.42978  0.13360  0.30302  Biso   1.000  O
  H1       1.0000 0.33611  0.56917  0.04736  Biso   1.000  H
  H2       1.0000 0.95490  0.42685  0.95490  Biso   1.000  H
  H3       1.0000 0.56917  0.04736  0.04736  Biso   1.000  H
  H4       1.0000 0.33611  0.04736  0.56917  Biso   1.000  H
  H5       1.0000 0.43083  0.66389  0.95264  Biso   1.000  H
  H6       1.0000 0.66335  0.42685  0.95490  Biso   1.000  H
  H7       1.0000 0.04736  0.56917  0.33611  Biso   1.000  H
  H8       1.0000 0.04736  0.33611  0.04736  Biso   1.000  H
  H9       1.0000 0.56917  0.33611  0.04736  Biso   1.000  H
  H10      1.0000 0.66389  0.95264  0.95264  Biso   1.000  H
  H11      1.0000 0.43083  0.95264  0.95264  Biso   1.000  H
  H12      1.0000 0.04736  0.33611  0.56917  Biso   1.000  H
  H13      1.0000 0.43083  0.95264  0.66389  Biso   1.000  H
  H14      1.0000 0.33611  0.04736  0.04736  Biso   1.000  H
  H15      1.0000 0.95490  0.95490  0.42685  Biso   1.000  H
  H16      1.0000 0.57315  0.04510  0.33665  Biso   1.000  H
  H17      1.0000 0.95490  0.95490  0.66335  Biso   1.000  H
  H18      1.0000 0.04510  0.57315  0.04510  Biso   1.000  H
  H19      1.0000 0.04736  0.04736  0.33611  Biso   1.000  H
  H20      1.0000 0.04736  0.04736  0.56917  Biso   1.000  H
  H21      1.0000 0.95490  0.42685  0.66335  Biso   1.000  H
  H22      1.0000 0.95264  0.66389  0.43083  Biso   1.000  H
  H23      1.0000 0.95490  0.66335  0.95490  Biso   1.000  H
  H24      1.0000 0.66389  0.95264  0.43083  Biso   1.000  H
  Zn9      1.0000 0.48554  0.54367  0.47349  Biso   1.000  Zn
  Zn10     1.0000 0.66086  0.36835  0.47349  Biso   1.000  Zn
  Zn11     1.0000 0.48554  0.36835  0.47349  Biso   1.000  Zn
  Zn12     1.0000 0.48554  0.36835  0.64881  Biso   1.000  Zn
  Zn13     1.0000 0.90341  0.96152  0.06666  Biso   1.000  Zn
  Zn14     1.0000 0.07873  0.78620  0.06666  Biso   1.000  Zn
  Zn15     1.0000 0.07873  0.96152  0.06666  Biso   1.000  Zn
  Zn16     1.0000 0.07873  0.96152  0.89134  Biso   1.000  Zn
  H25      1.0000 0.32232  0.73126  0.31026  Biso   1.000  H
  H26      1.0000 0.84846  0.20512  0.61235  Biso   1.000  H
  H27      1.0000 0.32232  0.50721  0.31026  Biso   1.000  H
  H28      1.0000 0.62441  0.20512  0.83640  Biso   1.000  H
  H29      1.0000 0.32232  0.20512  0.61235  Biso   1.000  H
  H30      1.0000 0.84846  0.50721  0.31026  Biso   1.000  H
  H31      1.0000 0.32232  0.20512  0.83640  Biso   1.000  H
  H32      1.0000 0.62441  0.73126  0.31026  Biso   1.000  H
  H33      1.0000 0.32232  0.50721  0.83640  Biso   1.000  H
  H34      1.0000 0.84846  0.20512  0.31026  Biso   1.000  H
  H35      1.0000 0.32232  0.73126  0.61235  Biso   1.000  H
  H36      1.0000 0.62441  0.20512  0.31026  Biso   1.000  H
  H37      1.0000 0.71581  0.12475  0.22989  Biso   1.000  H
  H38      1.0000 0.24195  0.59861  0.92780  Biso   1.000  H
  H39      1.0000 0.93986  0.12475  0.22989  Biso   1.000  H
  H40      1.0000 0.24195  0.82266  0.70375  Biso   1.000  H
  H41      1.0000 0.24195  0.12475  0.92780  Biso   1.000  H
  H42      1.0000 0.93986  0.59861  0.22989  Biso   1.000  H
  H43      1.0000 0.24195  0.12475  0.70375  Biso   1.000  H
  H44      1.0000 0.71581  0.82266  0.22989  Biso   1.000  H
  H45      1.0000 0.93986  0.12475  0.70375  Biso   1.000  H
  H46      1.0000 0.24195  0.59861  0.22989  Biso   1.000  H
  H47      1.0000 0.71581  0.12475  0.92780  Biso   1.000  H
  H48      1.0000 0.24195  0.82266  0.22989  Biso   1.000  H
  C49      1.0000 0.30374  0.70441  0.29168  Biso   1.000  C
  C50      1.0000 0.82162  0.18654  0.67634  Biso   1.000  C
  C51      1.0000 0.30374  0.57120  0.29168  Biso   1.000  C
  C52      1.0000 0.68840  0.18654  0.80956  Biso   1.000  C
  C53      1.0000 0.30374  0.18654  0.67634  Biso   1.000  C
  C54      1.0000 0.82162  0.57120  0.29168  Biso   1.000  C
  C55      1.0000 0.30374  0.18654  0.80956  Biso   1.000  C
  C56      1.0000 0.68840  0.70441  0.29168  Biso   1.000  C
  C57      1.0000 0.30374  0.57120  0.80956  Biso   1.000  C
  C58      1.0000 0.82162  0.18654  0.29168  Biso   1.000  C
  C59      1.0000 0.30374  0.70441  0.67634  Biso   1.000  C
  C60      1.0000 0.68840  0.18654  0.29168  Biso   1.000  C
  C61      1.0000 0.74266  0.14333  0.24847  Biso   1.000  C
  C62      1.0000 0.26053  0.62545  0.86381  Biso   1.000  C
  C63      1.0000 0.87587  0.14333  0.24847  Biso   1.000  C
  C64      1.0000 0.26053  0.75867  0.73059  Biso   1.000  C
  C65      1.0000 0.26053  0.14333  0.86381  Biso   1.000  C
  C66      1.0000 0.87587  0.62545  0.24847  Biso   1.000  C
  C67      1.0000 0.26053  0.14333  0.73059  Biso   1.000  C
  C68      1.0000 0.74266  0.75867  0.24847  Biso   1.000  C
  C69      1.0000 0.87587  0.14333  0.73059  Biso   1.000  C
  C70      1.0000 0.26053  0.62545  0.24847  Biso   1.000  C
  C71      1.0000 0.74266  0.14333  0.86381  Biso   1.000  C
  C72      1.0000 0.26053  0.75867  0.24847  Biso   1.000  C
  C73      1.0000 0.38929  0.55226  0.37723  Biso   1.000  C
  C74      1.0000 0.33102  0.61053  0.31896  Biso   1.000  C
  C75      1.0000 0.66947  0.27209  0.65741  Biso   1.000  C
  C76      1.0000 0.72773  0.21382  0.71567  Biso   1.000  C
  C77      1.0000 0.38929  0.27209  0.65741  Biso   1.000  C
  C78      1.0000 0.33102  0.21382  0.71567  Biso   1.000  C
  C79      1.0000 0.66947  0.55226  0.37723  Biso   1.000  C
  C80      1.0000 0.72773  0.61053  0.31896  Biso   1.000  C
  C81      1.0000 0.38929  0.55226  0.65741  Biso   1.000  C
  C82      1.0000 0.33102  0.61053  0.71567  Biso   1.000  C
  C83      1.0000 0.66947  0.27209  0.37723  Biso   1.000  C
  C84      1.0000 0.72773  0.21382  0.31896  Biso   1.000  C
  C85      1.0000 0.89481  0.05778  0.16292  Biso   1.000  C
  C86      1.0000 0.83654  0.11605  0.22119  Biso   1.000  C
  C87      1.0000 0.17498  0.77760  0.88274  Biso   1.000  C
  C88      1.0000 0.23325  0.71934  0.82448  Biso   1.000  C
  C89      1.0000 0.17498  0.05778  0.88274  Biso   1.000  C
  C90      1.0000 0.23325  0.11605  0.82448  Biso   1.000  C
  C91      1.0000 0.89481  0.77760  0.16292  Biso   1.000  C
  C92      1.0000 0.83654  0.71934  0.22119  Biso   1.000  C
  C93      1.0000 0.89481  0.05778  0.88274  Biso   1.000  C
  C94      1.0000 0.83654  0.11605  0.82448  Biso   1.000  C
  C95      1.0000 0.17498  0.77760  0.16292  Biso   1.000  C
  C96      1.0000 0.23325  0.71934  0.22119  Biso   1.000  C
  O27      1.0000 0.52938  0.41218  0.51732  Biso   1.000  O
  O28      1.0000 0.03489  0.91769  0.02283  Biso   1.000  O
  O29      1.0000 0.41177  0.59182  0.39971  Biso   1.000  O
  O30      1.0000 0.70902  0.29457  0.57288  Biso   1.000  O
  O31      1.0000 0.41177  0.46774  0.39971  Biso   1.000  O
  O32      1.0000 0.58494  0.29457  0.69696  Biso   1.000  O
  O33      1.0000 0.41177  0.29457  0.57288  Biso   1.000  O
  O34      1.0000 0.70902  0.46774  0.39971  Biso   1.000  O
  O35      1.0000 0.41177  0.29457  0.69696  Biso   1.000  O
  O36      1.0000 0.58494  0.59182  0.39971  Biso   1.000  O
  O37      1.0000 0.41177  0.46774  0.69696  Biso   1.000  O
  O38      1.0000 0.70902  0.29457  0.39971  Biso   1.000  O
  O39      1.0000 0.41177  0.59182  0.57288  Biso   1.000  O
  O40      1.0000 0.58494  0.29457  0.39971  Biso   1.000  O
  O41      1.0000 0.85525  0.03530  0.14044  Biso   1.000  O
  O42      1.0000 0.15250  0.73805  0.96727  Biso   1.000  O
  O43      1.0000 0.97933  0.03530  0.14044  Biso   1.000  O
  O44      1.0000 0.15250  0.86213  0.84319  Biso   1.000  O
  O45      1.0000 0.15250  0.03530  0.96727  Biso   1.000  O
  O46      1.0000 0.97933  0.73805  0.14044  Biso   1.000  O
  O47      1.0000 0.15250  0.03530  0.84319  Biso   1.000  O
  O48      1.0000 0.85525  0.86213  0.14044  Biso   1.000  O
  O49      1.0000 0.97933  0.03530  0.84319  Biso   1.000  O
  O50      1.0000 0.15250  0.73805  0.14044  Biso   1.000  O
  O51      1.0000 0.85525  0.03530  0.96727  Biso   1.000  O
