data_image0
_cell_length_a       18.1065
_cell_length_b       18.1065
_cell_length_c       18.1065
_cell_angle_alpha    60
_cell_angle_beta     60
_cell_angle_gamma    60

_symmetry_space_group_name_H-M    "P 1"
_symmetry_int_tables_number       1

loop_
  _symmetry_equiv_pos_as_xyz
  'x, y, z'

loop_
  _atom_site_label
  _atom_site_occupancy
  _atom_site_fract_x
  _atom_site_fract_y
  _atom_site_fract_z
  _atom_site_thermal_displace_type
  _atom_site_B_iso_or_equiv
  _atom_site_type_symbol
  C1       1.0000 0.79354  0.61938  0.79354  Biso   1.000  C
  C2       1.0000 0.61938  0.79354  0.79354  Biso   1.000  C
  C3       1.0000 0.20646  0.20646  0.38062  Biso   1.000  C
  C4       1.0000 0.79354  0.79354  0.79354  Biso   1.000  C
  C5       1.0000 0.20646  0.38062  0.20646  Biso   1.000  C
  C6       1.0000 0.20646  0.20646  0.20646  Biso   1.000  C
  C7       1.0000 0.38062  0.20646  0.20646  Biso   1.000  C
  C8       1.0000 0.79354  0.79354  0.61938  Biso   1.000  C
  C9       1.0000 0.41290  0.53690  0.02510  Biso   1.000  C
  C10      1.0000 0.97490  0.46310  0.97490  Biso   1.000  C
  C11      1.0000 0.53690  0.02510  0.02510  Biso   1.000  C
  C12      1.0000 0.94610  0.55390  0.55390  Biso   1.000  C
  C13      1.0000 0.41290  0.02510  0.53690  Biso   1.000  C
  C14      1.0000 0.55390  0.55390  0.94610  Biso   1.000  C
  C15      1.0000 0.38730  0.38730  0.11270  Biso   1.000  C
  C16      1.0000 0.46310  0.58710  0.97490  Biso   1.000  C
  C17      1.0000 0.58710  0.46310  0.97490  Biso   1.000  C
  C18      1.0000 0.94610  0.94610  0.55390  Biso   1.000  C
  C19      1.0000 0.94610  0.55390  0.94610  Biso   1.000  C
  C20      1.0000 0.02510  0.53690  0.41290  Biso   1.000  C
  C21      1.0000 0.02510  0.41290  0.02510  Biso   1.000  C
  C22      1.0000 0.88730  0.61270  0.88730  Biso   1.000  C
  C23      1.0000 0.61270  0.88730  0.61270  Biso   1.000  C
  C24      1.0000 0.38730  0.11270  0.11270  Biso   1.000  C
  C25      1.0000 0.61270  0.88730  0.88730  Biso   1.000  C
  C26      1.0000 0.61270  0.61270  0.88730  Biso   1.000  C
  C27      1.0000 0.53690  0.41290  0.02510  Biso   1.000  C
  C28      1.0000 0.58710  0.97490  0.97490  Biso   1.000  C
  C29      1.0000 0.11270  0.38730  0.11270  Biso   1.000  C
  C30      1.0000 0.46310  0.97490  0.97490  Biso   1.000  C
  C31      1.0000 0.02510  0.41290  0.53690  Biso   1.000  C
  C32      1.0000 0.88730  0.88730  0.61270  Biso   1.000  C
  C33      1.0000 0.46310  0.97490  0.58710  Biso   1.000  C
  C34      1.0000 0.38730  0.11270  0.38730  Biso   1.000  C
  C35      1.0000 0.05390  0.44610  0.05390  Biso   1.000  C
  C36      1.0000 0.41290  0.02510  0.02510  Biso   1.000  C
  C37      1.0000 0.97490  0.97490  0.46310  Biso   1.000  C
  C38      1.0000 0.88730  0.61270  0.61270  Biso   1.000  C
  C39      1.0000 0.53690  0.02510  0.41290  Biso   1.000  C
  C40      1.0000 0.97490  0.97490  0.58710  Biso   1.000  C
  C41      1.0000 0.44610  0.05390  0.44610  Biso   1.000  C
  C42      1.0000 0.02510  0.53690  0.02510  Biso   1.000  C
  C43      1.0000 0.02510  0.02510  0.41290  Biso   1.000  C
  C44      1.0000 0.11270  0.38730  0.38730  Biso   1.000  C
  C45      1.0000 0.02510  0.02510  0.53690  Biso   1.000  C
  C46      1.0000 0.97490  0.46310  0.58710  Biso   1.000  C
  C47      1.0000 0.97490  0.58710  0.46310  Biso   1.000  C
  C48      1.0000 0.55390  0.94610  0.94610  Biso   1.000  C
  C49      1.0000 0.97490  0.58710  0.97490  Biso   1.000  C
  C50      1.0000 0.44610  0.05390  0.05390  Biso   1.000  C
  C51      1.0000 0.05390  0.44610  0.44610  Biso   1.000  C
  C52      1.0000 0.11270  0.11270  0.38730  Biso   1.000  C
  C53      1.0000 0.05390  0.05390  0.44610  Biso   1.000  C
  C54      1.0000 0.55390  0.94610  0.55390  Biso   1.000  C
  C55      1.0000 0.58710  0.97490  0.46310  Biso   1.000  C
  C56      1.0000 0.44610  0.44610  0.05390  Biso   1.000  C
  C57      1.0000 0.13360  0.42978  0.13360  Biso   1.000  C
  C58      1.0000 0.13360  0.42978  0.30302  Biso   1.000  C
  C59      1.0000 0.86640  0.57022  0.86640  Biso   1.000  C
  C60      1.0000 0.30302  0.13360  0.42978  Biso   1.000  C
  C61      1.0000 0.13360  0.13360  0.42978  Biso   1.000  C
  C62      1.0000 0.86640  0.57022  0.69698  Biso   1.000  C
  C63      1.0000 0.69698  0.86640  0.57022  Biso   1.000  C
  C64      1.0000 0.86640  0.86640  0.57022  Biso   1.000  C
  C65      1.0000 0.13360  0.30302  0.13360  Biso   1.000  C
  C66      1.0000 0.42978  0.30302  0.13360  Biso   1.000  C
  C67      1.0000 0.86640  0.69698  0.86640  Biso   1.000  C
  C68      1.0000 0.13360  0.13360  0.30302  Biso   1.000  C
  C69      1.0000 0.69698  0.86640  0.86640  Biso   1.000  C
  C70      1.0000 0.57022  0.69698  0.86640  Biso   1.000  C
  C71      1.0000 0.57022  0.86640  0.86640  Biso   1.000  C
  C72      1.0000 0.13360  0.30302  0.42978  Biso   1.000  C
  C73      1.0000 0.25000  0.25000  0.25000  Biso   1.000  C
  C74      1.0000 0.30302  0.42978  0.13360  Biso   1.000  C
  C75      1.0000 0.69698  0.57022  0.86640  Biso   1.000  C
  C76      1.0000 0.57022  0.86640  0.69698  Biso   1.000  C
  C77      1.0000 0.42978  0.13360  0.13360  Biso   1.000  C
  C78      1.0000 0.86640  0.86640  0.69698  Biso   1.000  C
  C79      1.0000 0.75000  0.75000  0.75000  Biso   1.000  C
  C80      1.0000 0.30302  0.13360  0.13360  Biso   1.000  C
  C81      1.0000 0.86640  0.69698  0.57022  Biso   1.000  C
  C82      1.0000 0.42978  0.13360  0.30302  Biso   1.000  C
  C83      1.0000 0.33611  0.56917  0.04736  Biso   1.000  C
  C84      1.0000 0.95490  0.42685  0.95490  Biso   1.000  C
  C85      1.0000 0.56917  0.04736  0.04736  Biso   1.000  C
  C86      1.0000 0.33611  0.04736  0.56917  Biso   1.000  C
  C87      1.0000 0.43083  0.66389  0.95264  Biso   1.000  C
  C88      1.0000 0.66335  0.42685  0.95490  Biso   1.000  C
  C89      1.0000 0.04736  0.56917  0.33611  Biso   1.000  C
  C90      1.0000 0.04736  0.33611  0.04736  Biso   1.000  C
  C91      1.0000 0.56917  0.33611  0.04736  Biso   1.000  C
  C92      1.0000 0.66389  0.95264  0.95264  Biso   1.000  C
  C93      1.0000 0.43083  0.95264  0.95264  Biso   1.000  C
  C94      1.0000 0.04736  0.33611  0.56917  Biso   1.000  C
  C95      1.0000 0.43083  0.95264  0.66389  Biso   1.000  C
  C96      1.0000 0.33611  0.04736  0.04736  Biso   1.000  C
  C97      1.0000 0.95490  0.95490  0.42685  Biso   1.000  C
  C98      1.0000 0.57315  0.04510  0.33665  Biso   1.000  C
  C99      1.0000 0.95490  0.95490  0.66335  Biso   1.000  C
  C100     1.0000 0.04510  0.57315  0.04510  Biso   1.000  C
  C101     1.0000 0.04736  0.04736  0.33611  Biso   1.000  C
  C102     1.0000 0.04736  0.04736  0.56917  Biso   1.000  C
  C103     1.0000 0.95490  0.42685  0.66335  Biso   1.000  C
  C104     1.0000 0.95264  0.66389  0.43083  Biso   1.000  C
  C105     1.0000 0.95490  0.66335  0.95490  Biso   1.000  C
  C106     1.0000 0.66389  0.95264  0.43083  Biso   1.000  C
  O1       1.0000 0.43031  0.54367  0.47349  Biso   1.000  O
  O2       1.0000 0.01761  0.13097  0.88579  Biso   1.000  O
  O3       1.0000 0.19276  0.95582  0.88579  Biso   1.000  O
  O4       1.0000 0.60546  0.36852  0.47349  Biso   1.000  O
  O5       1.0000 0.60554  0.54375  0.29814  Biso   1.000  O
  O6       1.0000 0.60528  0.54349  0.47362  Biso   1.000  O
  O7       1.0000 0.01753  0.95574  0.06113  Biso   1.000  O
  O8       1.0000 0.01779  0.95600  0.88566  Biso   1.000  O
  O9       1.0000 0.46641  0.70174  0.11313  Biso   1.000  O
  O10      1.0000 0.24422  0.70018  0.33592  Biso   1.000  O
  O11      1.0000 0.24221  0.40605  0.62915  Biso   1.000  O
  O12      1.0000 0.85954  0.09487  0.24614  Biso   1.000  O
  O13      1.0000 0.86110  0.31706  0.02335  Biso   1.000  O
  O14      1.0000 0.15523  0.31907  0.73012  Biso   1.000  O
  O15      1.0000 0.15665  0.79776  0.24614  Biso   1.000  O
  O16      1.0000 0.37885  0.79931  0.02335  Biso   1.000  O
  O17      1.0000 0.38086  0.09344  0.73012  Biso   1.000  O
  O18      1.0000 0.76352  0.40463  0.11313  Biso   1.000  O
  O19      1.0000 0.76197  0.18243  0.33592  Biso   1.000  O
  O20      1.0000 0.46784  0.18042  0.62915  Biso   1.000  O
  O21      1.0000 0.43327  0.63260  0.29363  Biso   1.000  O
  O22      1.0000 0.36339  0.69769  0.23385  Biso   1.000  O
  O23      1.0000 0.40243  0.72333  0.13972  Biso   1.000  O
  O24      1.0000 0.27152  0.72188  0.27214  Biso   1.000  O
  O25      1.0000 0.42966  0.63199  0.56167  Biso   1.000  O
  O26      1.0000 0.26850  0.34237  0.65304  Biso   1.000  O
  O27      1.0000 0.92868  0.12801  0.06564  Biso   1.000  O
  O28      1.0000 0.86359  0.19789  0.12543  Biso   1.000  O
  O29      1.0000 0.83795  0.15885  0.21955  Biso   1.000  O
  O30      1.0000 0.83940  0.28976  0.08714  Biso   1.000  O
  O31      1.0000 0.92929  0.13162  0.79761  Biso   1.000  O
  O32      1.0000 0.21891  0.29278  0.70623  Biso   1.000  O
  O33      1.0000 0.18980  0.86689  0.06564  Biso   1.000  O
  O34      1.0000 0.25967  0.80181  0.12543  Biso   1.000  O
  O35      1.0000 0.22063  0.77616  0.21955  Biso   1.000  O
  O36      1.0000 0.35155  0.77762  0.08714  Biso   1.000  O
  O37      1.0000 0.19341  0.86750  0.79761  Biso   1.000  O
  O38      1.0000 0.35457  0.15712  0.70623  Biso   1.000  O
  O39      1.0000 0.69439  0.37148  0.29363  Biso   1.000  O
  O40      1.0000 0.75947  0.30161  0.23385  Biso   1.000  O
  O41      1.0000 0.78512  0.34065  0.13972  Biso   1.000  O
  O42      1.0000 0.78366  0.20973  0.27214  Biso   1.000  O
  O43      1.0000 0.69378  0.36787  0.56167  Biso   1.000  O
  O44      1.0000 0.40416  0.20671  0.65304  Biso   1.000  O
  O45      1.0000 0.69469  0.63290  0.29373  Biso   1.000  O
  O46      1.0000 0.42856  0.36677  0.56077  Biso   1.000  O
  O47      1.0000 0.36317  0.30139  0.63015  Biso   1.000  O
  O48      1.0000 0.92838  0.86659  0.06554  Biso   1.000  O
  O49      1.0000 0.19451  0.13272  0.79851  Biso   1.000  O
  O50      1.0000 0.25989  0.19811  0.72912  Biso   1.000  O
  O51      1.0000 0.51145  0.61621  0.24944  Biso   1.000  O
  O52      1.0000 0.38108  0.61700  0.37701  Biso   1.000  O
  O53      1.0000 0.51123  0.61639  0.54527  Biso   1.000  O
  O54      1.0000 0.37967  0.61659  0.54537  Biso   1.000  O
  O55      1.0000 0.37997  0.44895  0.54697  Biso   1.000  O
  O56      1.0000 0.94507  0.04983  0.10983  Biso   1.000  O
  O57      1.0000 0.94427  0.18020  0.98226  Biso   1.000  O
  O58      1.0000 0.94488  0.05005  0.81400  Biso   1.000  O
  O59      1.0000 0.94468  0.18161  0.81390  Biso   1.000  O
  O60      1.0000 0.11233  0.18131  0.81230  Biso   1.000  O
  O61      1.0000 0.11162  0.88328  0.10983  Biso   1.000  O
  O62      1.0000 0.24198  0.88249  0.98226  Biso   1.000  O
  O63      1.0000 0.11183  0.88310  0.81400  Biso   1.000  O
  O64      1.0000 0.24339  0.88290  0.81390  Biso   1.000  O
  O65      1.0000 0.24309  0.05055  0.81230  Biso   1.000  O
  O66      1.0000 0.67800  0.44966  0.24944  Biso   1.000  O
  O67      1.0000 0.67879  0.31929  0.37701  Biso   1.000  O
  O68      1.0000 0.67818  0.44945  0.54527  Biso   1.000  O
  O69      1.0000 0.67838  0.31788  0.54537  Biso   1.000  O
  O70      1.0000 0.51073  0.31818  0.54697  Biso   1.000  O
  O71      1.0000 0.56032  0.49854  0.43090  Biso   1.000  O
  O72      1.0000 0.67790  0.61611  0.24794  Biso   1.000  O
  O73      1.0000 0.67779  0.61600  0.37881  Biso   1.000  O
  O74      1.0000 0.06274  0.00096  0.92837  Biso   1.000  O
  O75      1.0000 0.94517  0.88338  0.11133  Biso   1.000  O
