data_image0
_cell_length_a       18.1065
_cell_length_b       18.1065
_cell_length_c       18.1065
_cell_angle_alpha    60
_cell_angle_beta     60
_cell_angle_gamma    60

_symmetry_space_group_name_H-M    "P 1"
_symmetry_int_tables_number       1

loop_
  _symmetry_equiv_pos_as_xyz
  'x, y, z'

loop_
  _atom_site_label
  _atom_site_occupancy
  _atom_site_fract_x
  _atom_site_fract_y
  _atom_site_fract_z
  _atom_site_thermal_displace_type
  _atom_site_B_iso_or_equiv
  _atom_site_type_symbol
  Zn1      1.0000 0.79354  0.61938  0.79354  Biso   1.000  Zn
  Zn2      1.0000 0.61938  0.79354  0.79354  Biso   1.000  Zn
  Zn3      1.0000 0.20646  0.20646  0.38062  Biso   1.000  Zn
  Zn4      1.0000 0.79354  0.79354  0.79354  Biso   1.000  Zn
  Zn5      1.0000 0.20646  0.38062  0.20646  Biso   1.000  Zn
  Zn6      1.0000 0.20646  0.20646  0.20646  Biso   1.000  Zn
  Zn7      1.0000 0.38062  0.20646  0.20646  Biso   1.000  Zn
  Zn8      1.0000 0.79354  0.79354  0.61938  Biso   1.000  Zn
  C1       1.0000 0.41290  0.53690  0.02510  Biso   1.000  C
  C2       1.0000 0.97490  0.46310  0.97490  Biso   1.000  C
  C3       1.0000 0.53690  0.02510  0.02510  Biso   1.000  C
  C4       1.0000 0.94610  0.55390  0.55390  Biso   1.000  C
  C5       1.0000 0.41290  0.02510  0.53690  Biso   1.000  C
  C6       1.0000 0.55390  0.55390  0.94610  Biso   1.000  C
  C7       1.0000 0.38730  0.38730  0.11270  Biso   1.000  C
  C8       1.0000 0.46310  0.58710  0.97490  Biso   1.000  C
  C9       1.0000 0.58710  0.46310  0.97490  Biso   1.000  C
  C10      1.0000 0.94610  0.94610  0.55390  Biso   1.000  C
  C11      1.0000 0.94610  0.55390  0.94610  Biso   1.000  C
  C12      1.0000 0.02510  0.53690  0.41290  Biso   1.000  C
  C13      1.0000 0.02510  0.41290  0.02510  Biso   1.000  C
  C14      1.0000 0.88730  0.61270  0.88730  Biso   1.000  C
  C15      1.0000 0.61270  0.88730  0.61270  Biso   1.000  C
  C16      1.0000 0.38730  0.11270  0.11270  Biso   1.000  C
  C17      1.0000 0.61270  0.88730  0.88730  Biso   1.000  C
  C18      1.0000 0.61270  0.61270  0.88730  Biso   1.000  C
  C19      1.0000 0.53690  0.41290  0.02510  Biso   1.000  C
  C20      1.0000 0.58710  0.97490  0.97490  Biso   1.000  C
  C21      1.0000 0.11270  0.38730  0.11270  Biso   1.000  C
  C22      1.0000 0.46310  0.97490  0.97490  Biso   1.000  C
  C23      1.0000 0.02510  0.41290  0.53690  Biso   1.000  C
  C24      1.0000 0.88730  0.88730  0.61270  Biso   1.000  C
  C25      1.0000 0.46310  0.97490  0.58710  Biso   1.000  C
  C26      1.0000 0.38730  0.11270  0.38730  Biso   1.000  C
  C27      1.0000 0.05390  0.44610  0.05390  Biso   1.000  C
  C28      1.0000 0.41290  0.02510  0.02510  Biso   1.000  C
  C29      1.0000 0.97490  0.97490  0.46310  Biso   1.000  C
  C30      1.0000 0.88730  0.61270  0.61270  Biso   1.000  C
  C31      1.0000 0.53690  0.02510  0.41290  Biso   1.000  C
  C32      1.0000 0.97490  0.97490  0.58710  Biso   1.000  C
  C33      1.0000 0.44610  0.05390  0.44610  Biso   1.000  C
  C34      1.0000 0.02510  0.53690  0.02510  Biso   1.000  C
  C35      1.0000 0.02510  0.02510  0.41290  Biso   1.000  C
  C36      1.0000 0.11270  0.38730  0.38730  Biso   1.000  C
  C37      1.0000 0.02510  0.02510  0.53690  Biso   1.000  C
  C38      1.0000 0.97490  0.46310  0.58710  Biso   1.000  C
  C39      1.0000 0.97490  0.58710  0.46310  Biso   1.000  C
  C40      1.0000 0.55390  0.94610  0.94610  Biso   1.000  C
  C41      1.0000 0.97490  0.58710  0.97490  Biso   1.000  C
  C42      1.0000 0.44610  0.05390  0.05390  Biso   1.000  C
  C43      1.0000 0.05390  0.44610  0.44610  Biso   1.000  C
  C44      1.0000 0.11270  0.11270  0.38730  Biso   1.000  C
  C45      1.0000 0.05390  0.05390  0.44610  Biso   1.000  C
  C46      1.0000 0.55390  0.94610  0.55390  Biso   1.000  C
  C47      1.0000 0.58710  0.97490  0.46310  Biso   1.000  C
  C48      1.0000 0.44610  0.44610  0.05390  Biso   1.000  C
  O1       1.0000 0.13360  0.42978  0.13360  Biso   1.000  O
  O2       1.0000 0.13360  0.42978  0.30302  Biso   1.000  O
  O3       1.0000 0.86640  0.57022  0.86640  Biso   1.000  O
  O4       1.0000 0.30302  0.13360  0.42978  Biso   1.000  O
  O5       1.0000 0.13360  0.13360  0.42978  Biso   1.000  O
  O6       1.0000 0.86640  0.57022  0.69698  Biso   1.000  O
  O7       1.0000 0.69698  0.86640  0.57022  Biso   1.000  O
  O8       1.0000 0.86640  0.86640  0.57022  Biso   1.000  O
  O9       1.0000 0.13360  0.30302  0.13360  Biso   1.000  O
  O10      1.0000 0.42978  0.30302  0.13360  Biso   1.000  O
  O11      1.0000 0.86640  0.69698  0.86640  Biso   1.000  O
  O12      1.0000 0.13360  0.13360  0.30302  Biso   1.000  O
  O13      1.0000 0.69698  0.86640  0.86640  Biso   1.000  O
  O14      1.0000 0.57022  0.69698  0.86640  Biso   1.000  O
  O15      1.0000 0.57022  0.86640  0.86640  Biso   1.000  O
  O16      1.0000 0.13360  0.30302  0.42978  Biso   1.000  O
  O17      1.0000 0.25000  0.25000  0.25000  Biso   1.000  O
  O18      1.0000 0.30302  0.42978  0.13360  Biso   1.000  O
  O19      1.0000 0.69698  0.57022  0.86640  Biso   1.000  O
  O20      1.0000 0.57022  0.86640  0.69698  Biso   1.000  O
  O21      1.0000 0.42978  0.13360  0.13360  Biso   1.000  O
  O22      1.0000 0.86640  0.86640  0.69698  Biso   1.000  O
  O23      1.0000 0.75000  0.75000  0.75000  Biso   1.000  O
  O24      1.0000 0.30302  0.13360  0.13360  Biso   1.000  O
  O25      1.0000 0.86640  0.69698  0.57022  Biso   1.000  O
  O26      1.0000 0.42978  0.13360  0.30302  Biso   1.000  O
  H1       1.0000 0.33611  0.56917  0.04736  Biso   1.000  H
  H2       1.0000 0.95490  0.42685  0.95490  Biso   1.000  H
  H3       1.0000 0.56917  0.04736  0.04736  Biso   1.000  H
  H4       1.0000 0.33611  0.04736  0.56917  Biso   1.000  H
  H5       1.0000 0.43083  0.66389  0.95264  Biso   1.000  H
  H6       1.0000 0.66335  0.42685  0.95490  Biso   1.000  H
  H7       1.0000 0.04736  0.56917  0.33611  Biso   1.000  H
  H8       1.0000 0.04736  0.33611  0.04736  Biso   1.000  H
  H9       1.0000 0.56917  0.33611  0.04736  Biso   1.000  H
  H10      1.0000 0.66389  0.95264  0.95264  Biso   1.000  H
  H11      1.0000 0.43083  0.95264  0.95264  Biso   1.000  H
  H12      1.0000 0.04736  0.33611  0.56917  Biso   1.000  H
  H13      1.0000 0.43083  0.95264  0.66389  Biso   1.000  H
  H14      1.0000 0.33611  0.04736  0.04736  Biso   1.000  H
  H15      1.0000 0.95490  0.95490  0.42685  Biso   1.000  H
  H16      1.0000 0.57315  0.04510  0.33665  Biso   1.000  H
  H17      1.0000 0.95490  0.95490  0.66335  Biso   1.000  H
  H18      1.0000 0.04510  0.57315  0.04510  Biso   1.000  H
  H19      1.0000 0.04736  0.04736  0.33611  Biso   1.000  H
  H20      1.0000 0.04736  0.04736  0.56917  Biso   1.000  H
  H21      1.0000 0.95490  0.42685  0.66335  Biso   1.000  H
  H22      1.0000 0.95264  0.66389  0.43083  Biso   1.000  H
  H23      1.0000 0.95490  0.66335  0.95490  Biso   1.000  H
  H24      1.0000 0.66389  0.95264  0.43083  Biso   1.000  H
  Zn9      1.0000 0.48167  0.34848  0.67641  Biso   1.000  Zn
  Zn10     1.0000 0.65722  0.34848  0.50087  Biso   1.000  Zn
  Zn11     1.0000 0.48167  0.34848  0.50087  Biso   1.000  Zn
  Zn12     1.0000 0.48167  0.52403  0.50087  Biso   1.000  Zn
  Zn13     1.0000 0.08372  0.93149  0.90833  Biso   1.000  Zn
  Zn14     1.0000 0.90817  0.93149  0.08387  Biso   1.000  Zn
  Zn15     1.0000 0.08372  0.75595  0.08387  Biso   1.000  Zn
  Zn16     1.0000 0.08372  0.93149  0.08387  Biso   1.000  Zn
  H25      1.0000 0.63159  0.18521  0.85303  Biso   1.000  H
  H26      1.0000 0.84335  0.18521  0.64126  Biso   1.000  H
  H27      1.0000 0.32792  0.48888  0.33760  Biso   1.000  H
  H28      1.0000 0.32792  0.70064  0.33760  Biso   1.000  H
  H29      1.0000 0.32792  0.70064  0.64126  Biso   1.000  H
  H30      1.0000 0.32792  0.48888  0.85303  Biso   1.000  H
  H31      1.0000 0.63159  0.18521  0.33760  Biso   1.000  H
  H32      1.0000 0.84335  0.18521  0.33760  Biso   1.000  H
  H33      1.0000 0.84335  0.48888  0.33760  Biso   1.000  H
  H34      1.0000 0.63159  0.70064  0.33760  Biso   1.000  H
  H35      1.0000 0.32792  0.18521  0.64126  Biso   1.000  H
  H36      1.0000 0.32792  0.18521  0.85303  Biso   1.000  H
  H37      1.0000 0.93380  0.09476  0.73171  Biso   1.000  H
  H38      1.0000 0.72204  0.09476  0.94348  Biso   1.000  H
  H39      1.0000 0.23747  0.57933  0.24714  Biso   1.000  H
  H40      1.0000 0.23747  0.79110  0.24714  Biso   1.000  H
  H41      1.0000 0.23747  0.09476  0.94348  Biso   1.000  H
  H42      1.0000 0.23747  0.09476  0.73171  Biso   1.000  H
  H43      1.0000 0.93380  0.57933  0.24714  Biso   1.000  H
  H44      1.0000 0.72204  0.79110  0.24714  Biso   1.000  H
  H45      1.0000 0.72204  0.09476  0.24714  Biso   1.000  H
  H46      1.0000 0.93380  0.09476  0.24714  Biso   1.000  H
  H47      1.0000 0.23747  0.57933  0.94348  Biso   1.000  H
  H48      1.0000 0.23747  0.79110  0.73171  Biso   1.000  H
  C49      1.0000 0.69549  0.16686  0.82583  Biso   1.000  C
  C50      1.0000 0.81616  0.16686  0.70516  Biso   1.000  C
  C51      1.0000 0.30957  0.55278  0.31924  Biso   1.000  C
  C52      1.0000 0.30957  0.67345  0.31924  Biso   1.000  C
  C53      1.0000 0.30957  0.67345  0.70516  Biso   1.000  C
  C54      1.0000 0.30957  0.55278  0.82583  Biso   1.000  C
  C55      1.0000 0.69549  0.16686  0.31924  Biso   1.000  C
  C56      1.0000 0.81616  0.16686  0.31924  Biso   1.000  C
  C57      1.0000 0.81616  0.55278  0.31924  Biso   1.000  C
  C58      1.0000 0.69549  0.67345  0.31924  Biso   1.000  C
  C59      1.0000 0.30957  0.16686  0.70516  Biso   1.000  C
  C60      1.0000 0.30957  0.16686  0.82583  Biso   1.000  C
  C61      1.0000 0.86990  0.11311  0.75891  Biso   1.000  C
  C62      1.0000 0.74924  0.11311  0.87958  Biso   1.000  C
  C63      1.0000 0.25582  0.60653  0.26550  Biso   1.000  C
  C64      1.0000 0.25582  0.72719  0.26550  Biso   1.000  C
  C65      1.0000 0.25582  0.11311  0.87958  Biso   1.000  C
  C66      1.0000 0.25582  0.11311  0.75891  Biso   1.000  C
  C67      1.0000 0.86990  0.60653  0.26550  Biso   1.000  C
  C68      1.0000 0.74924  0.72719  0.26550  Biso   1.000  C
  C69      1.0000 0.74924  0.11311  0.26550  Biso   1.000  C
  C70      1.0000 0.86990  0.11311  0.26550  Biso   1.000  C
  C71      1.0000 0.25582  0.60653  0.87958  Biso   1.000  C
  C72      1.0000 0.25582  0.72719  0.75891  Biso   1.000  C
  C73      1.0000 0.66540  0.25252  0.68460  Biso   1.000  C
  C74      1.0000 0.72357  0.19435  0.74277  Biso   1.000  C
  C75      1.0000 0.38571  0.53222  0.40490  Biso   1.000  C
  C76      1.0000 0.32754  0.59039  0.34673  Biso   1.000  C
  C77      1.0000 0.38571  0.53222  0.68460  Biso   1.000  C
  C78      1.0000 0.32754  0.59039  0.74277  Biso   1.000  C
  C79      1.0000 0.66540  0.25252  0.40490  Biso   1.000  C
  C80      1.0000 0.72357  0.19435  0.34673  Biso   1.000  C
  C81      1.0000 0.66540  0.53222  0.40490  Biso   1.000  C
  C82      1.0000 0.72357  0.59039  0.34673  Biso   1.000  C
  C83      1.0000 0.38571  0.25252  0.68460  Biso   1.000  C
  C84      1.0000 0.32754  0.19435  0.74277  Biso   1.000  C
  C85      1.0000 0.89999  0.02746  0.90014  Biso   1.000  C
  C86      1.0000 0.84182  0.08562  0.84197  Biso   1.000  C
  C87      1.0000 0.17969  0.74776  0.17984  Biso   1.000  C
  C88      1.0000 0.23785  0.68959  0.23801  Biso   1.000  C
  C89      1.0000 0.17969  0.02746  0.90014  Biso   1.000  C
  C90      1.0000 0.23785  0.08562  0.84197  Biso   1.000  C
  C91      1.0000 0.89999  0.74776  0.17984  Biso   1.000  C
  C92      1.0000 0.84182  0.68959  0.23801  Biso   1.000  C
  C93      1.0000 0.89999  0.02746  0.17984  Biso   1.000  C
  C94      1.0000 0.84182  0.08562  0.23801  Biso   1.000  C
  C95      1.0000 0.17969  0.74776  0.90014  Biso   1.000  C
  C96      1.0000 0.23785  0.68959  0.84197  Biso   1.000  C
  O27      1.0000 0.52555  0.39237  0.54475  Biso   1.000  O
  O28      1.0000 0.03984  0.88761  0.03999  Biso   1.000  O
  O29      1.0000 0.58142  0.27502  0.72358  Biso   1.000  O
  O30      1.0000 0.70438  0.27502  0.60062  Biso   1.000  O
  O31      1.0000 0.40821  0.44823  0.42740  Biso   1.000  O
  O32      1.0000 0.40821  0.57119  0.42740  Biso   1.000  O
  O33      1.0000 0.40821  0.57119  0.60062  Biso   1.000  O
  O34      1.0000 0.40821  0.44823  0.72358  Biso   1.000  O
  O35      1.0000 0.58142  0.27502  0.42740  Biso   1.000  O
  O36      1.0000 0.70438  0.27502  0.42740  Biso   1.000  O
  O37      1.0000 0.70438  0.44823  0.42740  Biso   1.000  O
  O38      1.0000 0.58142  0.57119  0.42740  Biso   1.000  O
  O39      1.0000 0.40821  0.27502  0.60062  Biso   1.000  O
  O40      1.0000 0.40821  0.27502  0.72358  Biso   1.000  O
  O41      1.0000 0.98397  0.00495  0.86116  Biso   1.000  O
  O42      1.0000 0.86101  0.00495  0.98412  Biso   1.000  O
  O43      1.0000 0.15718  0.70878  0.15734  Biso   1.000  O
  O44      1.0000 0.15718  0.83174  0.15734  Biso   1.000  O
  O45      1.0000 0.15718  0.00495  0.98412  Biso   1.000  O
  O46      1.0000 0.15718  0.00495  0.86116  Biso   1.000  O
  O47      1.0000 0.98397  0.70878  0.15734  Biso   1.000  O
  O48      1.0000 0.86101  0.83174  0.15734  Biso   1.000  O
  O49      1.0000 0.86101  0.00495  0.15734  Biso   1.000  O
  O50      1.0000 0.98397  0.00495  0.15734  Biso   1.000  O
  O51      1.0000 0.15718  0.70878  0.98412  Biso   1.000  O
