data_image0
_cell_length_a       18.1065
_cell_length_b       18.1065
_cell_length_c       18.1065
_cell_angle_alpha    60
_cell_angle_beta     60
_cell_angle_gamma    60

_symmetry_space_group_name_H-M    "P 1"
_symmetry_int_tables_number       1

loop_
  _symmetry_equiv_pos_as_xyz
  'x, y, z'

loop_
  _atom_site_label
  _atom_site_occupancy
  _atom_site_fract_x
  _atom_site_fract_y
  _atom_site_fract_z
  _atom_site_thermal_displace_type
  _atom_site_B_iso_or_equiv
  _atom_site_type_symbol
  C1       1.0000 0.79354  0.61938  0.79354  Biso   1.000  C
  C2       1.0000 0.61938  0.79354  0.79354  Biso   1.000  C
  C3       1.0000 0.20646  0.20646  0.38062  Biso   1.000  C
  C4       1.0000 0.79354  0.79354  0.79354  Biso   1.000  C
  C5       1.0000 0.20646  0.38062  0.20646  Biso   1.000  C
  C6       1.0000 0.20646  0.20646  0.20646  Biso   1.000  C
  C7       1.0000 0.38062  0.20646  0.20646  Biso   1.000  C
  C8       1.0000 0.79354  0.79354  0.61938  Biso   1.000  C
  C9       1.0000 0.41290  0.53690  0.02510  Biso   1.000  C
  C10      1.0000 0.97490  0.46310  0.97490  Biso   1.000  C
  C11      1.0000 0.53690  0.02510  0.02510  Biso   1.000  C
  C12      1.0000 0.94610  0.55390  0.55390  Biso   1.000  C
  C13      1.0000 0.41290  0.02510  0.53690  Biso   1.000  C
  C14      1.0000 0.55390  0.55390  0.94610  Biso   1.000  C
  C15      1.0000 0.38730  0.38730  0.11270  Biso   1.000  C
  C16      1.0000 0.46310  0.58710  0.97490  Biso   1.000  C
  C17      1.0000 0.58710  0.46310  0.97490  Biso   1.000  C
  C18      1.0000 0.94610  0.94610  0.55390  Biso   1.000  C
  C19      1.0000 0.94610  0.55390  0.94610  Biso   1.000  C
  C20      1.0000 0.02510  0.53690  0.41290  Biso   1.000  C
  C21      1.0000 0.02510  0.41290  0.02510  Biso   1.000  C
  C22      1.0000 0.88730  0.61270  0.88730  Biso   1.000  C
  C23      1.0000 0.61270  0.88730  0.61270  Biso   1.000  C
  C24      1.0000 0.38730  0.11270  0.11270  Biso   1.000  C
  C25      1.0000 0.61270  0.88730  0.88730  Biso   1.000  C
  C26      1.0000 0.61270  0.61270  0.88730  Biso   1.000  C
  C27      1.0000 0.53690  0.41290  0.02510  Biso   1.000  C
  C28      1.0000 0.58710  0.97490  0.97490  Biso   1.000  C
  C29      1.0000 0.11270  0.38730  0.11270  Biso   1.000  C
  C30      1.0000 0.46310  0.97490  0.97490  Biso   1.000  C
  C31      1.0000 0.02510  0.41290  0.53690  Biso   1.000  C
  C32      1.0000 0.88730  0.88730  0.61270  Biso   1.000  C
  C33      1.0000 0.46310  0.97490  0.58710  Biso   1.000  C
  C34      1.0000 0.38730  0.11270  0.38730  Biso   1.000  C
  C35      1.0000 0.05390  0.44610  0.05390  Biso   1.000  C
  C36      1.0000 0.41290  0.02510  0.02510  Biso   1.000  C
  C37      1.0000 0.97490  0.97490  0.46310  Biso   1.000  C
  C38      1.0000 0.88730  0.61270  0.61270  Biso   1.000  C
  C39      1.0000 0.53690  0.02510  0.41290  Biso   1.000  C
  C40      1.0000 0.97490  0.97490  0.58710  Biso   1.000  C
  C41      1.0000 0.44610  0.05390  0.44610  Biso   1.000  C
  C42      1.0000 0.02510  0.53690  0.02510  Biso   1.000  C
  C43      1.0000 0.02510  0.02510  0.41290  Biso   1.000  C
  C44      1.0000 0.11270  0.38730  0.38730  Biso   1.000  C
  C45      1.0000 0.02510  0.02510  0.53690  Biso   1.000  C
  C46      1.0000 0.97490  0.46310  0.58710  Biso   1.000  C
  C47      1.0000 0.97490  0.58710  0.46310  Biso   1.000  C
  C48      1.0000 0.55390  0.94610  0.94610  Biso   1.000  C
  C49      1.0000 0.97490  0.58710  0.97490  Biso   1.000  C
  C50      1.0000 0.44610  0.05390  0.05390  Biso   1.000  C
  C51      1.0000 0.05390  0.44610  0.44610  Biso   1.000  C
  C52      1.0000 0.11270  0.11270  0.38730  Biso   1.000  C
  C53      1.0000 0.05390  0.05390  0.44610  Biso   1.000  C
  C54      1.0000 0.55390  0.94610  0.55390  Biso   1.000  C
  C55      1.0000 0.58710  0.97490  0.46310  Biso   1.000  C
  C56      1.0000 0.44610  0.44610  0.05390  Biso   1.000  C
  C57      1.0000 0.13360  0.42978  0.13360  Biso   1.000  C
  C58      1.0000 0.13360  0.42978  0.30302  Biso   1.000  C
  C59      1.0000 0.86640  0.57022  0.86640  Biso   1.000  C
  C60      1.0000 0.30302  0.13360  0.42978  Biso   1.000  C
  C61      1.0000 0.13360  0.13360  0.42978  Biso   1.000  C
  C62      1.0000 0.86640  0.57022  0.69698  Biso   1.000  C
  C63      1.0000 0.69698  0.86640  0.57022  Biso   1.000  C
  C64      1.0000 0.86640  0.86640  0.57022  Biso   1.000  C
  C65      1.0000 0.13360  0.30302  0.13360  Biso   1.000  C
  C66      1.0000 0.42978  0.30302  0.13360  Biso   1.000  C
  C67      1.0000 0.86640  0.69698  0.86640  Biso   1.000  C
  C68      1.0000 0.13360  0.13360  0.30302  Biso   1.000  C
  C69      1.0000 0.69698  0.86640  0.86640  Biso   1.000  C
  C70      1.0000 0.57022  0.69698  0.86640  Biso   1.000  C
  C71      1.0000 0.57022  0.86640  0.86640  Biso   1.000  C
  C72      1.0000 0.13360  0.30302  0.42978  Biso   1.000  C
  C73      1.0000 0.25000  0.25000  0.25000  Biso   1.000  C
  C74      1.0000 0.30302  0.42978  0.13360  Biso   1.000  C
  C75      1.0000 0.69698  0.57022  0.86640  Biso   1.000  C
  C76      1.0000 0.57022  0.86640  0.69698  Biso   1.000  C
  C77      1.0000 0.42978  0.13360  0.13360  Biso   1.000  C
  C78      1.0000 0.86640  0.86640  0.69698  Biso   1.000  C
  C79      1.0000 0.75000  0.75000  0.75000  Biso   1.000  C
  C80      1.0000 0.30302  0.13360  0.13360  Biso   1.000  C
  C81      1.0000 0.86640  0.69698  0.57022  Biso   1.000  C
  C82      1.0000 0.42978  0.13360  0.30302  Biso   1.000  C
  C83      1.0000 0.33611  0.56917  0.04736  Biso   1.000  C
  C84      1.0000 0.95490  0.42685  0.95490  Biso   1.000  C
  C85      1.0000 0.56917  0.04736  0.04736  Biso   1.000  C
  C86      1.0000 0.33611  0.04736  0.56917  Biso   1.000  C
  C87      1.0000 0.43083  0.66389  0.95264  Biso   1.000  C
  C88      1.0000 0.66335  0.42685  0.95490  Biso   1.000  C
  C89      1.0000 0.04736  0.56917  0.33611  Biso   1.000  C
  C90      1.0000 0.04736  0.33611  0.04736  Biso   1.000  C
  C91      1.0000 0.56917  0.33611  0.04736  Biso   1.000  C
  C92      1.0000 0.66389  0.95264  0.95264  Biso   1.000  C
  C93      1.0000 0.43083  0.95264  0.95264  Biso   1.000  C
  C94      1.0000 0.04736  0.33611  0.56917  Biso   1.000  C
  C95      1.0000 0.43083  0.95264  0.66389  Biso   1.000  C
  C96      1.0000 0.33611  0.04736  0.04736  Biso   1.000  C
  C97      1.0000 0.95490  0.95490  0.42685  Biso   1.000  C
  C98      1.0000 0.57315  0.04510  0.33665  Biso   1.000  C
  C99      1.0000 0.95490  0.95490  0.66335  Biso   1.000  C
  C100     1.0000 0.04510  0.57315  0.04510  Biso   1.000  C
  C101     1.0000 0.04736  0.04736  0.33611  Biso   1.000  C
  C102     1.0000 0.04736  0.04736  0.56917  Biso   1.000  C
  C103     1.0000 0.95490  0.42685  0.66335  Biso   1.000  C
  C104     1.0000 0.95264  0.66389  0.43083  Biso   1.000  C
  C105     1.0000 0.95490  0.66335  0.95490  Biso   1.000  C
  C106     1.0000 0.66389  0.95264  0.43083  Biso   1.000  C
  O1       1.0000 0.48554  0.54367  0.47349  Biso   1.000  O
  O2       1.0000 0.66098  0.36823  0.47349  Biso   1.000  O
  O3       1.0000 0.48554  0.36823  0.47349  Biso   1.000  O
  O4       1.0000 0.48554  0.36823  0.64893  Biso   1.000  O
  O5       1.0000 0.90268  0.96083  0.06609  Biso   1.000  O
  O6       1.0000 0.07812  0.78538  0.06609  Biso   1.000  O
  O7       1.0000 0.07812  0.96083  0.06609  Biso   1.000  O
  O8       1.0000 0.07812  0.96083  0.89065  Biso   1.000  O
  O9       1.0000 0.32239  0.73056  0.31035  Biso   1.000  O
  O10      1.0000 0.84787  0.20509  0.61287  Biso   1.000  O
  O11      1.0000 0.32239  0.50761  0.31035  Biso   1.000  O
  O12      1.0000 0.62491  0.20509  0.83583  Biso   1.000  O
  O13      1.0000 0.32239  0.20509  0.61287  Biso   1.000  O
  O14      1.0000 0.84787  0.50761  0.31035  Biso   1.000  O
  O15      1.0000 0.32239  0.20509  0.83583  Biso   1.000  O
  O16      1.0000 0.62491  0.73056  0.31035  Biso   1.000  O
  O17      1.0000 0.32239  0.50761  0.83583  Biso   1.000  O
  O18      1.0000 0.84787  0.20509  0.31035  Biso   1.000  O
  O19      1.0000 0.32239  0.73056  0.61287  Biso   1.000  O
  O20      1.0000 0.62491  0.20509  0.31035  Biso   1.000  O
  O21      1.0000 0.71579  0.12396  0.22922  Biso   1.000  O
  O22      1.0000 0.24126  0.59849  0.92670  Biso   1.000  O
  O23      1.0000 0.93874  0.12396  0.22922  Biso   1.000  O
  O24      1.0000 0.24126  0.82144  0.70375  Biso   1.000  O
  O25      1.0000 0.24126  0.12396  0.92670  Biso   1.000  O
  O26      1.0000 0.93874  0.59849  0.22922  Biso   1.000  O
  O27      1.0000 0.24126  0.12396  0.70375  Biso   1.000  O
  O28      1.0000 0.71579  0.82144  0.22922  Biso   1.000  O
  O29      1.0000 0.93874  0.12396  0.70375  Biso   1.000  O
  O30      1.0000 0.24126  0.59849  0.22922  Biso   1.000  O
  O31      1.0000 0.71579  0.12396  0.92670  Biso   1.000  O
  O32      1.0000 0.24126  0.82144  0.22922  Biso   1.000  O
  O33      1.0000 0.30392  0.70354  0.29187  Biso   1.000  O
  O34      1.0000 0.82085  0.18661  0.67685  Biso   1.000  O
  O35      1.0000 0.30392  0.57159  0.29187  Biso   1.000  O
  O36      1.0000 0.68889  0.18661  0.80881  Biso   1.000  O
  O37      1.0000 0.30392  0.18661  0.67685  Biso   1.000  O
  O38      1.0000 0.82085  0.57159  0.29187  Biso   1.000  O
  O39      1.0000 0.30392  0.18661  0.80881  Biso   1.000  O
  O40      1.0000 0.68889  0.70354  0.29187  Biso   1.000  O
  O41      1.0000 0.30392  0.57159  0.80881  Biso   1.000  O
  O42      1.0000 0.82085  0.18661  0.29187  Biso   1.000  O
  O43      1.0000 0.30392  0.70354  0.67685  Biso   1.000  O
  O44      1.0000 0.68889  0.18661  0.29187  Biso   1.000  O
  O45      1.0000 0.74281  0.14244  0.24770  Biso   1.000  O
  O46      1.0000 0.25974  0.62551  0.86273  Biso   1.000  O
  O47      1.0000 0.87477  0.14244  0.24770  Biso   1.000  O
  O48      1.0000 0.25974  0.75746  0.73077  Biso   1.000  O
  O49      1.0000 0.25974  0.14244  0.86273  Biso   1.000  O
  O50      1.0000 0.87477  0.62551  0.24770  Biso   1.000  O
  O51      1.0000 0.25974  0.14244  0.73077  Biso   1.000  O
  O52      1.0000 0.74281  0.75746  0.24770  Biso   1.000  O
  O53      1.0000 0.87477  0.14244  0.73077  Biso   1.000  O
  O54      1.0000 0.25974  0.62551  0.24770  Biso   1.000  O
  O55      1.0000 0.74281  0.14244  0.86273  Biso   1.000  O
  O56      1.0000 0.25974  0.75746  0.24770  Biso   1.000  O
  O57      1.0000 0.38952  0.55196  0.37748  Biso   1.000  O
  O58      1.0000 0.33120  0.61028  0.31916  Biso   1.000  O
  O59      1.0000 0.66926  0.27222  0.65722  Biso   1.000  O
  O60      1.0000 0.72759  0.21390  0.71554  Biso   1.000  O
  O61      1.0000 0.38952  0.27222  0.65722  Biso   1.000  O
  O62      1.0000 0.33120  0.21390  0.71554  Biso   1.000  O
  O63      1.0000 0.66926  0.55196  0.37748  Biso   1.000  O
  O64      1.0000 0.72759  0.61028  0.31916  Biso   1.000  O
  O65      1.0000 0.38952  0.55196  0.65722  Biso   1.000  O
  O66      1.0000 0.33120  0.61028  0.71554  Biso   1.000  O
  O67      1.0000 0.66926  0.27222  0.37748  Biso   1.000  O
  O68      1.0000 0.72759  0.21390  0.31916  Biso   1.000  O
  O69      1.0000 0.89440  0.05683  0.16210  Biso   1.000  O
  O70      1.0000 0.83607  0.11516  0.22042  Biso   1.000  O
  O71      1.0000 0.17414  0.77709  0.88236  Biso   1.000  O
  O72      1.0000 0.23246  0.71877  0.82403  Biso   1.000  O
  O73      1.0000 0.17414  0.05683  0.88236  Biso   1.000  O
  O74      1.0000 0.23246  0.11516  0.82403  Biso   1.000  O
  O75      1.0000 0.89440  0.77709  0.16210  Biso   1.000  O
  O76      1.0000 0.83607  0.71877  0.22042  Biso   1.000  O
  O77      1.0000 0.89440  0.05683  0.88236  Biso   1.000  O
  O78      1.0000 0.83607  0.11516  0.82403  Biso   1.000  O
  O79      1.0000 0.17414  0.77709  0.16210  Biso   1.000  O
  O80      1.0000 0.23246  0.71877  0.22042  Biso   1.000  O
  O81      1.0000 0.52939  0.41209  0.51735  Biso   1.000  O
  O82      1.0000 0.03427  0.91696  0.02223  Biso   1.000  O
  O83      1.0000 0.41199  0.59133  0.39995  Biso   1.000  O
  O84      1.0000 0.70863  0.29469  0.57292  Biso   1.000  O
  O85      1.0000 0.41199  0.46766  0.39995  Biso   1.000  O
  O86      1.0000 0.58496  0.29469  0.69659  Biso   1.000  O
  O87      1.0000 0.41199  0.29469  0.57292  Biso   1.000  O
  O88      1.0000 0.70863  0.46766  0.39995  Biso   1.000  O
  O89      1.0000 0.41199  0.29469  0.69659  Biso   1.000  O
  O90      1.0000 0.58496  0.59133  0.39995  Biso   1.000  O
  O91      1.0000 0.41199  0.46766  0.69659  Biso   1.000  O
  O92      1.0000 0.70863  0.29469  0.39995  Biso   1.000  O
  O93      1.0000 0.41199  0.59133  0.57292  Biso   1.000  O
  O94      1.0000 0.58496  0.29469  0.39995  Biso   1.000  O
  O95      1.0000 0.85503  0.03437  0.13963  Biso   1.000  O
  O96      1.0000 0.15167  0.73772  0.96666  Biso   1.000  O
  O97      1.0000 0.97870  0.03437  0.13963  Biso   1.000  O
  O98      1.0000 0.15167  0.86140  0.84299  Biso   1.000  O
  O99      1.0000 0.15167  0.03437  0.96666  Biso   1.000  O
  O100     1.0000 0.97870  0.73772  0.13963  Biso   1.000  O
  O101     1.0000 0.15167  0.03437  0.84299  Biso   1.000  O
  O102     1.0000 0.85503  0.86140  0.13963  Biso   1.000  O
  O103     1.0000 0.97870  0.03437  0.84299  Biso   1.000  O
  O104     1.0000 0.15167  0.73772  0.13963  Biso   1.000  O
  O105     1.0000 0.85503  0.03437  0.96666  Biso   1.000  O
