data_image0
_cell_length_a       18.1115
_cell_length_b       18.1115
_cell_length_c       18.1115
_cell_angle_alpha    60
_cell_angle_beta     60
_cell_angle_gamma    60

_symmetry_space_group_name_H-M    "P 1"
_symmetry_int_tables_number       1

loop_
  _symmetry_equiv_pos_as_xyz
  'x, y, z'

loop_
  _atom_site_label
  _atom_site_occupancy
  _atom_site_fract_x
  _atom_site_fract_y
  _atom_site_fract_z
  _atom_site_thermal_displace_type
  _atom_site_B_iso_or_equiv
  _atom_site_type_symbol
  C1       1.0000 0.11875  0.29375  0.29375  Biso   1.000  C
  C2       1.0000 0.29374  0.11876  0.29375  Biso   1.000  C
  C3       1.0000 0.29374  0.29375  0.11876  Biso   1.000  C
  C4       1.0000 0.29374  0.29375  0.29375  Biso   1.000  C
  C5       1.0000 0.70626  0.88124  0.70625  Biso   1.000  C
  C6       1.0000 0.88125  0.70625  0.70625  Biso   1.000  C
  C7       1.0000 0.70626  0.70625  0.88124  Biso   1.000  C
  C8       1.0000 0.70626  0.70625  0.70625  Biso   1.000  C
  C9       1.0000 0.11130  0.38870  0.38870  Biso   1.000  C
  C10      1.0000 0.05330  0.44670  0.44670  Biso   1.000  C
  C11      1.0000 0.38870  0.11130  0.11130  Biso   1.000  C
  C12      1.0000 0.44670  0.05330  0.05330  Biso   1.000  C
  C13      1.0000 0.11130  0.38870  0.11130  Biso   1.000  C
  C14      1.0000 0.05330  0.44670  0.05330  Biso   1.000  C
  C15      1.0000 0.38870  0.11130  0.38870  Biso   1.000  C
  C16      1.0000 0.44670  0.05330  0.44670  Biso   1.000  C
  C17      1.0000 0.11130  0.11130  0.38870  Biso   1.000  C
  C18      1.0000 0.05330  0.05330  0.44670  Biso   1.000  C
  C19      1.0000 0.38870  0.38870  0.11130  Biso   1.000  C
  C20      1.0000 0.44670  0.44670  0.05330  Biso   1.000  C
  C21      1.0000 0.61130  0.88870  0.61130  Biso   1.000  C
  C22      1.0000 0.55330  0.94670  0.55330  Biso   1.000  C
  C23      1.0000 0.88870  0.61130  0.88870  Biso   1.000  C
  C24      1.0000 0.94670  0.55330  0.94670  Biso   1.000  C
  C25      1.0000 0.61130  0.88870  0.88870  Biso   1.000  C
  C26      1.0000 0.55330  0.94670  0.94670  Biso   1.000  C
  C27      1.0000 0.88870  0.61130  0.61130  Biso   1.000  C
  C28      1.0000 0.94670  0.55330  0.55330  Biso   1.000  C
  C29      1.0000 0.88870  0.88870  0.61130  Biso   1.000  C
  C30      1.0000 0.94670  0.94670  0.55330  Biso   1.000  C
  C31      1.0000 0.61130  0.61130  0.88870  Biso   1.000  C
  C32      1.0000 0.55330  0.55330  0.94670  Biso   1.000  C
  C33      1.0000 0.02700  0.53796  0.40804  Biso   1.000  C
  C34      1.0000 0.05680  0.58280  0.30360  Biso   1.000  C
  C35      1.0000 0.53796  0.02700  0.02700  Biso   1.000  C
  C36      1.0000 0.58280  0.05680  0.05680  Biso   1.000  C
  C37      1.0000 0.40804  0.02700  0.02700  Biso   1.000  C
  C38      1.0000 0.30360  0.05680  0.05680  Biso   1.000  C
  C39      1.0000 0.02700  0.40804  0.53796  Biso   1.000  C
  C40      1.0000 0.05680  0.30360  0.58280  Biso   1.000  C
  C41      1.0000 0.02700  0.40804  0.02700  Biso   1.000  C
  C42      1.0000 0.05680  0.30360  0.05680  Biso   1.000  C
  C43      1.0000 0.53796  0.02700  0.40804  Biso   1.000  C
  C44      1.0000 0.58280  0.05680  0.30360  Biso   1.000  C
  C45      1.0000 0.40804  0.02700  0.53796  Biso   1.000  C
  C46      1.0000 0.30360  0.05680  0.58280  Biso   1.000  C
  C47      1.0000 0.02700  0.53796  0.02700  Biso   1.000  C
  C48      1.0000 0.05680  0.58280  0.05680  Biso   1.000  C
  C49      1.0000 0.02700  0.02700  0.53796  Biso   1.000  C
  C50      1.0000 0.05680  0.05680  0.58280  Biso   1.000  C
  C51      1.0000 0.53796  0.40804  0.02700  Biso   1.000  C
  C52      1.0000 0.58280  0.30360  0.05680  Biso   1.000  C
  C53      1.0000 0.40804  0.53796  0.02700  Biso   1.000  C
  C54      1.0000 0.30360  0.58280  0.05680  Biso   1.000  C
  C55      1.0000 0.02700  0.02700  0.40804  Biso   1.000  C
  C56      1.0000 0.05680  0.05680  0.30360  Biso   1.000  C
  C57      1.0000 0.46204  0.97300  0.59196  Biso   1.000  C
  C58      1.0000 0.41720  0.94320  0.69640  Biso   1.000  C
  C59      1.0000 0.97300  0.46204  0.97300  Biso   1.000  C
  C60      1.0000 0.94320  0.41720  0.94320  Biso   1.000  C
  C61      1.0000 0.97300  0.59196  0.97300  Biso   1.000  C
  C62      1.0000 0.94320  0.69640  0.94320  Biso   1.000  C
  C63      1.0000 0.59196  0.97300  0.46204  Biso   1.000  C
  C64      1.0000 0.69640  0.94320  0.41720  Biso   1.000  C
  C65      1.0000 0.59196  0.97300  0.97300  Biso   1.000  C
  C66      1.0000 0.69640  0.94320  0.94320  Biso   1.000  C
  C67      1.0000 0.97300  0.46204  0.59196  Biso   1.000  C
  C68      1.0000 0.94320  0.41720  0.69640  Biso   1.000  C
  C69      1.0000 0.97300  0.59196  0.46204  Biso   1.000  C
  C70      1.0000 0.94320  0.69640  0.41720  Biso   1.000  C
  C71      1.0000 0.46204  0.97300  0.97300  Biso   1.000  C
  C72      1.0000 0.41720  0.94320  0.94320  Biso   1.000  C
  C73      1.0000 0.97300  0.97300  0.46204  Biso   1.000  C
  C74      1.0000 0.94320  0.94320  0.41720  Biso   1.000  C
  C75      1.0000 0.59196  0.46204  0.97300  Biso   1.000  C
  C76      1.0000 0.69640  0.41720  0.94320  Biso   1.000  C
  C77      1.0000 0.46204  0.59196  0.97300  Biso   1.000  C
  C78      1.0000 0.41720  0.69640  0.94320  Biso   1.000  C
  C79      1.0000 0.97300  0.97300  0.59196  Biso   1.000  C
  C80      1.0000 0.94320  0.94320  0.69640  Biso   1.000  C
  C81      1.0000 0.25000  0.25000  0.25000  Biso   1.000  C
  C82      1.0000 0.75000  0.75000  0.75000  Biso   1.000  C
  C83      1.0000 0.07193  0.36665  0.36665  Biso   1.000  C
  C84      1.0000 0.36665  0.07193  0.19477  Biso   1.000  C
  C85      1.0000 0.36665  0.19477  0.07193  Biso   1.000  C
  C86      1.0000 0.19477  0.36665  0.36665  Biso   1.000  C
  C87      1.0000 0.07193  0.36665  0.19477  Biso   1.000  C
  C88      1.0000 0.36665  0.19477  0.36665  Biso   1.000  C
  C89      1.0000 0.36665  0.07193  0.36665  Biso   1.000  C
  C90      1.0000 0.19477  0.36665  0.07193  Biso   1.000  C
  C91      1.0000 0.07193  0.19477  0.36665  Biso   1.000  C
  C92      1.0000 0.36665  0.36665  0.07193  Biso   1.000  C
  C93      1.0000 0.36665  0.36665  0.19477  Biso   1.000  C
  C94      1.0000 0.19477  0.07193  0.36665  Biso   1.000  C
  C95      1.0000 0.63335  0.92807  0.63335  Biso   1.000  C
  C96      1.0000 0.92807  0.63335  0.80523  Biso   1.000  C
  C97      1.0000 0.80523  0.63335  0.92807  Biso   1.000  C
  C98      1.0000 0.63335  0.80523  0.63335  Biso   1.000  C
  C99      1.0000 0.63335  0.92807  0.80523  Biso   1.000  C
  C100     1.0000 0.80523  0.63335  0.63335  Biso   1.000  C
  C101     1.0000 0.92807  0.63335  0.63335  Biso   1.000  C
  C102     1.0000 0.63335  0.80523  0.92807  Biso   1.000  C
  C103     1.0000 0.80523  0.92807  0.63335  Biso   1.000  C
  C104     1.0000 0.63335  0.63335  0.92807  Biso   1.000  C
  C105     1.0000 0.63335  0.63335  0.80523  Biso   1.000  C
  C106     1.0000 0.92807  0.80523  0.63335  Biso   1.000  C
  C107     1.0000 0.99442  0.62939  0.28203  Biso   1.000  C
  C108     1.0000 0.09768  0.52814  0.27068  Biso   1.000  C
  C109     1.0000 0.10018  0.62380  0.28140  Biso   1.000  C
  C110     1.0000 0.63289  0.09003  0.99466  Biso   1.000  C
  C111     1.0000 0.61995  0.99511  0.10397  Biso   1.000  C
  C112     1.0000 0.52848  0.10715  0.09365  Biso   1.000  C
  C113     1.0000 0.27995  0.99729  0.11189  Biso   1.000  C
  C114     1.0000 0.28324  0.08031  0.99627  Biso   1.000  C
  C115     1.0000 0.27092  0.11469  0.08412  Biso   1.000  C
  C116     1.0000 0.05061  0.27263  0.54554  Biso   1.000  C
  C117     1.0000 0.01162  0.28507  0.65655  Biso   1.000  C
  C118     1.0000 0.13005  0.27641  0.57924  Biso   1.000  C
  C119     1.0000 0.04405  0.28515  0.01352  Biso   1.000  C
  C120     1.0000 0.01631  0.27612  0.13091  Biso   1.000  C
  C121     1.0000 0.13192  0.27284  0.04786  Biso   1.000  C
  C122     1.0000 0.52810  0.10279  0.27068  Biso   1.000  C
  C123     1.0000 0.62453  0.99455  0.28148  Biso   1.000  C
  C124     1.0000 0.62870  0.09495  0.28195  Biso   1.000  C
  C125     1.0000 0.28324  0.99627  0.64018  Biso   1.000  C
  C126     1.0000 0.27092  0.08412  0.53028  Biso   1.000  C
  C127     1.0000 0.27995  0.11189  0.61087  Biso   1.000  C
  C128     1.0000 0.10184  0.62216  0.99479  Biso   1.000  C
  C129     1.0000 0.09596  0.52825  0.10509  Biso   1.000  C
  C130     1.0000 0.99449  0.63092  0.09240  Biso   1.000  C
  C131     1.0000 0.10504  0.09602  0.52825  Biso   1.000  C
  C132     1.0000 0.09246  0.99448  0.63086  Biso   1.000  C
  C133     1.0000 0.99478  0.10178  0.62222  Biso   1.000  C
  C134     1.0000 0.58591  0.27715  0.00955  Biso   1.000  C
  C135     1.0000 0.54120  0.27215  0.12893  Biso   1.000  C
  C136     1.0000 0.65421  0.28481  0.05380  Biso   1.000  C
  C137     1.0000 0.27093  0.53034  0.11487  Biso   1.000  C
  C138     1.0000 0.27992  0.61062  0.99737  Biso   1.000  C
  C139     1.0000 0.28326  0.64036  0.08004  Biso   1.000  C
  C140     1.0000 0.99967  0.11683  0.27921  Biso   1.000  C
  C141     1.0000 0.07328  0.99827  0.28374  Biso   1.000  C
  C142     1.0000 0.11933  0.07718  0.27115  Biso   1.000  C
  C143     1.0000 0.43697  0.86636  0.72541  Biso   1.000  C
  C144     1.0000 0.34055  0.97460  0.71461  Biso   1.000  C
  C145     1.0000 0.44115  0.96676  0.72588  Biso   1.000  C
  C146     1.0000 0.96777  0.34070  0.97691  Biso   1.000  C
  C147     1.0000 0.97365  0.43460  0.86660  Biso   1.000  C
  C148     1.0000 0.86630  0.44337  0.96421  Biso   1.000  C
  C149     1.0000 0.88812  0.72005  0.00272  Biso   1.000  C
  C150     1.0000 0.91586  0.72908  0.88533  Biso   1.000  C
  C151     1.0000 0.00373  0.71677  0.91967  Biso   1.000  C
  C152     1.0000 0.71485  0.95593  0.34272  Biso   1.000  C
  C153     1.0000 0.72716  0.86808  0.45263  Biso   1.000  C
  C154     1.0000 0.72388  0.98370  0.42332  Biso   1.000  C
  C155     1.0000 0.72716  0.95212  0.86808  Biso   1.000  C
  C156     1.0000 0.72388  0.86910  0.98370  Biso   1.000  C
  C157     1.0000 0.71485  0.98650  0.95593  Biso   1.000  C
  C158     1.0000 0.96949  0.34059  0.71461  Biso   1.000  C
  C159     1.0000 0.86623  0.44183  0.72595  Biso   1.000  C
  C160     1.0000 0.97200  0.43625  0.72533  Biso   1.000  C
  C161     1.0000 0.88343  0.72900  0.46899  Biso   1.000  C
  C162     1.0000 0.92242  0.71656  0.35799  Biso   1.000  C
  C163     1.0000 0.00186  0.72034  0.39169  Biso   1.000  C
  C164     1.0000 0.43240  0.86692  0.97579  Biso   1.000  C
  C165     1.0000 0.44534  0.96184  0.86647  Biso   1.000  C
  C166     1.0000 0.34093  0.97896  0.96546  Biso   1.000  C
  C167     1.0000 0.96428  0.86629  0.44331  Biso   1.000  C
  C168     1.0000 0.97685  0.96783  0.34070  Biso   1.000  C
  C169     1.0000 0.86659  0.97359  0.43467  Biso   1.000  C
  C170     1.0000 0.72385  0.42307  0.86918  Biso   1.000  C
  C171     1.0000 0.71486  0.34279  0.98668  Biso   1.000  C
  C172     1.0000 0.72718  0.45281  0.95186  Biso   1.000  C
  C173     1.0000 0.35365  0.71607  0.00074  Biso   1.000  C
  C174     1.0000 0.39836  0.72108  0.88136  Biso   1.000  C
  C175     1.0000 0.46666  0.72874  0.92561  Biso   1.000  C
  C176     1.0000 0.94509  0.87008  0.72767  Biso   1.000  C
  C177     1.0000 0.87148  0.98864  0.72314  Biso   1.000  C
  C178     1.0000 0.99114  0.94899  0.71508  Biso   1.000  C
  O1       1.0000 0.15115  0.95953  0.94671  Biso   1.000  O
  O2       1.0000 0.97849  0.95953  0.11937  Biso   1.000  O
  O3       1.0000 0.97849  0.13219  0.94671  Biso   1.000  O
  O4       1.0000 0.97849  0.95953  0.94671  Biso   1.000  O
  O5       1.0000 0.56561  0.54585  0.35962  Biso   1.000  O
  O6       1.0000 0.39219  0.54585  0.53303  Biso   1.000  O
  O7       1.0000 0.56561  0.54585  0.53303  Biso   1.000  O
  O8       1.0000 0.56561  0.37243  0.53303  Biso   1.000  O
  O9       1.0000 0.42127  0.71036  0.17493  Biso   1.000  O
  O10      1.0000 0.20750  0.71036  0.38870  Biso   1.000  O
  O11      1.0000 0.73012  0.40151  0.69755  Biso   1.000  O
  O12      1.0000 0.73012  0.18774  0.69755  Biso   1.000  O
  O13      1.0000 0.73012  0.18774  0.38870  Biso   1.000  O
  O14      1.0000 0.73012  0.40151  0.17493  Biso   1.000  O
  O15      1.0000 0.42127  0.71036  0.69755  Biso   1.000  O
  O16      1.0000 0.20750  0.71036  0.69755  Biso   1.000  O
  O17      1.0000 0.20750  0.40151  0.69755  Biso   1.000  O
  O18      1.0000 0.42127  0.18774  0.69755  Biso   1.000  O
  O19      1.0000 0.73012  0.71036  0.38870  Biso   1.000  O
  O20      1.0000 0.73012  0.71036  0.17493  Biso   1.000  O
  O21      1.0000 0.31049  0.77771  0.15101  Biso   1.000  O
  O22      1.0000 0.35892  0.72707  0.20385  Biso   1.000  O
  O23      1.0000 0.18358  0.77771  0.27791  Biso   1.000  O
  O24      1.0000 0.23643  0.72707  0.32635  Biso   1.000  O
  O25      1.0000 0.79748  0.29073  0.76490  Biso   1.000  O
  O26      1.0000 0.74683  0.33916  0.71426  Biso   1.000  O
  O27      1.0000 0.79748  0.16382  0.76490  Biso   1.000  O
  O28      1.0000 0.74683  0.21667  0.71426  Biso   1.000  O
  O29      1.0000 0.79748  0.16382  0.27791  Biso   1.000  O
  O30      1.0000 0.74683  0.21667  0.32635  Biso   1.000  O
  O31      1.0000 0.79748  0.29073  0.15101  Biso   1.000  O
  O32      1.0000 0.74683  0.33916  0.20385  Biso   1.000  O
  O33      1.0000 0.31049  0.77771  0.76490  Biso   1.000  O
  O34      1.0000 0.35892  0.72707  0.71426  Biso   1.000  O
  O35      1.0000 0.18358  0.77771  0.76490  Biso   1.000  O
  O36      1.0000 0.23643  0.72707  0.71426  Biso   1.000  O
  O37      1.0000 0.18358  0.29073  0.76490  Biso   1.000  O
  O38      1.0000 0.23643  0.33916  0.71426  Biso   1.000  O
  O39      1.0000 0.31049  0.16382  0.76490  Biso   1.000  O
  O40      1.0000 0.35892  0.21667  0.71426  Biso   1.000  O
  O41      1.0000 0.79748  0.77771  0.27791  Biso   1.000  O
  O42      1.0000 0.74683  0.72707  0.32635  Biso   1.000  O
  O43      1.0000 0.79748  0.77771  0.15101  Biso   1.000  O
  O44      1.0000 0.74683  0.72707  0.20385  Biso   1.000  O
  O45      1.0000 0.15846  0.86629  0.12589  Biso   1.000  O
  O46      1.0000 0.22252  0.80223  0.18994  Biso   1.000  O
  O47      1.0000 0.38054  0.64421  0.34797  Biso   1.000  O
  O48      1.0000 0.33000  0.69475  0.29743  Biso   1.000  O
  O49      1.0000 0.88605  0.13870  0.85347  Biso   1.000  O
  O50      1.0000 0.82199  0.20275  0.78942  Biso   1.000  O
  O51      1.0000 0.66397  0.36078  0.63139  Biso   1.000  O
  O52      1.0000 0.71451  0.31024  0.68193  Biso   1.000  O
  O53      1.0000 0.88605  0.13870  0.12589  Biso   1.000  O
  O54      1.0000 0.82199  0.20276  0.18994  Biso   1.000  O
  O55      1.0000 0.66397  0.36078  0.34797  Biso   1.000  O
  O56      1.0000 0.71451  0.31024  0.29743  Biso   1.000  O
  O57      1.0000 0.15846  0.86629  0.85347  Biso   1.000  O
  O58      1.0000 0.22252  0.80223  0.78942  Biso   1.000  O
  O59      1.0000 0.38054  0.64421  0.63139  Biso   1.000  O
  O60      1.0000 0.33000  0.69475  0.68193  Biso   1.000  O
  O61      1.0000 0.15846  0.13870  0.85347  Biso   1.000  O
  O62      1.0000 0.22252  0.20275  0.78942  Biso   1.000  O
  O63      1.0000 0.38054  0.36078  0.63139  Biso   1.000  O
  O64      1.0000 0.33000  0.31024  0.68193  Biso   1.000  O
  O65      1.0000 0.88605  0.86629  0.12589  Biso   1.000  O
  O66      1.0000 0.82199  0.80223  0.18994  Biso   1.000  O
  O67      1.0000 0.66397  0.64421  0.34797  Biso   1.000  O
  O68      1.0000 0.71451  0.69475  0.29743  Biso   1.000  O
  O69      1.0000 0.52225  0.50249  0.48968  Biso   1.000  O
  O70      1.0000 0.02105  0.00290  0.99008  Biso   1.000  O
  O71      1.0000 0.19729  0.88830  0.04302  Biso   1.000  O
  O72      1.0000 0.46591  0.61929  0.31244  Biso   1.000  O
  O73      1.0000 0.07560  0.88830  0.16472  Biso   1.000  O
  O74      1.0000 0.34501  0.61929  0.43333  Biso   1.000  O
  O75      1.0000 0.90806  0.17753  0.87549  Biso   1.000  O
  O76      1.0000 0.63905  0.44615  0.60647  Biso   1.000  O
  O77      1.0000 0.90806  0.05584  0.87549  Biso   1.000  O
  O78      1.0000 0.63905  0.32525  0.60647  Biso   1.000  O
  O79      1.0000 0.90806  0.05584  0.16472  Biso   1.000  O
  O80      1.0000 0.63905  0.32525  0.43333  Biso   1.000  O
  O81      1.0000 0.90806  0.17753  0.04302  Biso   1.000  O
  O82      1.0000 0.63905  0.44615  0.31244  Biso   1.000  O
  O83      1.0000 0.19730  0.88830  0.87549  Biso   1.000  O
  O84      1.0000 0.46591  0.61929  0.60647  Biso   1.000  O
  O85      1.0000 0.07560  0.88830  0.87549  Biso   1.000  O
  O86      1.0000 0.34501  0.61929  0.60647  Biso   1.000  O
  O87      1.0000 0.07560  0.17753  0.87549  Biso   1.000  O
  O88      1.0000 0.34501  0.44615  0.60647  Biso   1.000  O
  O89      1.0000 0.19729  0.05584  0.87549  Biso   1.000  O
  O90      1.0000 0.46591  0.32525  0.60647  Biso   1.000  O
  O91      1.0000 0.90806  0.88830  0.16472  Biso   1.000  O
  O92      1.0000 0.63905  0.61929  0.43333  Biso   1.000  O
  O93      1.0000 0.90806  0.88830  0.04302  Biso   1.000  O
