data_image0
_cell_length_a       18.1115
_cell_length_b       18.1115
_cell_length_c       18.1115
_cell_angle_alpha    60
_cell_angle_beta     60
_cell_angle_gamma    60

_symmetry_space_group_name_H-M    "P 1"
_symmetry_int_tables_number       1

loop_
  _symmetry_equiv_pos_as_xyz
  'x, y, z'

loop_
  _atom_site_label
  _atom_site_occupancy
  _atom_site_fract_x
  _atom_site_fract_y
  _atom_site_fract_z
  _atom_site_thermal_displace_type
  _atom_site_B_iso_or_equiv
  _atom_site_type_symbol
  Zn1      1.0000 0.11875  0.29375  0.29375  Biso   1.000  Zn
  Zn2      1.0000 0.29374  0.11876  0.29375  Biso   1.000  Zn
  Zn3      1.0000 0.29374  0.29375  0.11876  Biso   1.000  Zn
  Zn4      1.0000 0.29374  0.29375  0.29375  Biso   1.000  Zn
  Zn5      1.0000 0.70626  0.88124  0.70625  Biso   1.000  Zn
  Zn6      1.0000 0.88125  0.70625  0.70625  Biso   1.000  Zn
  Zn7      1.0000 0.70626  0.70625  0.88124  Biso   1.000  Zn
  Zn8      1.0000 0.70626  0.70625  0.70625  Biso   1.000  Zn
  C1       1.0000 0.11130  0.38870  0.38870  Biso   1.000  C
  C2       1.0000 0.05330  0.44670  0.44670  Biso   1.000  C
  C3       1.0000 0.38870  0.11130  0.11130  Biso   1.000  C
  C4       1.0000 0.44670  0.05330  0.05330  Biso   1.000  C
  C5       1.0000 0.11130  0.38870  0.11130  Biso   1.000  C
  C6       1.0000 0.05330  0.44670  0.05330  Biso   1.000  C
  C7       1.0000 0.38870  0.11130  0.38870  Biso   1.000  C
  C8       1.0000 0.44670  0.05330  0.44670  Biso   1.000  C
  C9       1.0000 0.11130  0.11130  0.38870  Biso   1.000  C
  C10      1.0000 0.05330  0.05330  0.44670  Biso   1.000  C
  C11      1.0000 0.38870  0.38870  0.11130  Biso   1.000  C
  C12      1.0000 0.44670  0.44670  0.05330  Biso   1.000  C
  C13      1.0000 0.61130  0.88870  0.61130  Biso   1.000  C
  C14      1.0000 0.55330  0.94670  0.55330  Biso   1.000  C
  C15      1.0000 0.88870  0.61130  0.88870  Biso   1.000  C
  C16      1.0000 0.94670  0.55330  0.94670  Biso   1.000  C
  C17      1.0000 0.61130  0.88870  0.88870  Biso   1.000  C
  C18      1.0000 0.55330  0.94670  0.94670  Biso   1.000  C
  C19      1.0000 0.88870  0.61130  0.61130  Biso   1.000  C
  C20      1.0000 0.94670  0.55330  0.55330  Biso   1.000  C
  C21      1.0000 0.88870  0.88870  0.61130  Biso   1.000  C
  C22      1.0000 0.94670  0.94670  0.55330  Biso   1.000  C
  C23      1.0000 0.61130  0.61130  0.88870  Biso   1.000  C
  C24      1.0000 0.55330  0.55330  0.94670  Biso   1.000  C
  C25      1.0000 0.02700  0.53796  0.40804  Biso   1.000  C
  C26      1.0000 0.05680  0.58280  0.30360  Biso   1.000  C
  C27      1.0000 0.53796  0.02700  0.02700  Biso   1.000  C
  C28      1.0000 0.58280  0.05680  0.05680  Biso   1.000  C
  C29      1.0000 0.40804  0.02700  0.02700  Biso   1.000  C
  C30      1.0000 0.30360  0.05680  0.05680  Biso   1.000  C
  C31      1.0000 0.02700  0.40804  0.53796  Biso   1.000  C
  C32      1.0000 0.05680  0.30360  0.58280  Biso   1.000  C
  C33      1.0000 0.02700  0.40804  0.02700  Biso   1.000  C
  C34      1.0000 0.05680  0.30360  0.05680  Biso   1.000  C
  C35      1.0000 0.53796  0.02700  0.40804  Biso   1.000  C
  C36      1.0000 0.58280  0.05680  0.30360  Biso   1.000  C
  C37      1.0000 0.40804  0.02700  0.53796  Biso   1.000  C
  C38      1.0000 0.30360  0.05680  0.58280  Biso   1.000  C
  C39      1.0000 0.02700  0.53796  0.02700  Biso   1.000  C
  C40      1.0000 0.05680  0.58280  0.05680  Biso   1.000  C
  C41      1.0000 0.02700  0.02700  0.53796  Biso   1.000  C
  C42      1.0000 0.05680  0.05680  0.58280  Biso   1.000  C
  C43      1.0000 0.53796  0.40804  0.02700  Biso   1.000  C
  C44      1.0000 0.58280  0.30360  0.05680  Biso   1.000  C
  C45      1.0000 0.40804  0.53796  0.02700  Biso   1.000  C
  C46      1.0000 0.30360  0.58280  0.05680  Biso   1.000  C
  C47      1.0000 0.02700  0.02700  0.40804  Biso   1.000  C
  C48      1.0000 0.05680  0.05680  0.30360  Biso   1.000  C
  C49      1.0000 0.46204  0.97300  0.59196  Biso   1.000  C
  C50      1.0000 0.41720  0.94320  0.69640  Biso   1.000  C
  C51      1.0000 0.97300  0.46204  0.97300  Biso   1.000  C
  C52      1.0000 0.94320  0.41720  0.94320  Biso   1.000  C
  C53      1.0000 0.97300  0.59196  0.97300  Biso   1.000  C
  C54      1.0000 0.94320  0.69640  0.94320  Biso   1.000  C
  C55      1.0000 0.59196  0.97300  0.46204  Biso   1.000  C
  C56      1.0000 0.69640  0.94320  0.41720  Biso   1.000  C
  C57      1.0000 0.59196  0.97300  0.97300  Biso   1.000  C
  C58      1.0000 0.69640  0.94320  0.94320  Biso   1.000  C
  C59      1.0000 0.97300  0.46204  0.59196  Biso   1.000  C
  C60      1.0000 0.94320  0.41720  0.69640  Biso   1.000  C
  C61      1.0000 0.97300  0.59196  0.46204  Biso   1.000  C
  C62      1.0000 0.94320  0.69640  0.41720  Biso   1.000  C
  C63      1.0000 0.46204  0.97300  0.97300  Biso   1.000  C
  C64      1.0000 0.41720  0.94320  0.94320  Biso   1.000  C
  C65      1.0000 0.97300  0.97300  0.46204  Biso   1.000  C
  C66      1.0000 0.94320  0.94320  0.41720  Biso   1.000  C
  C67      1.0000 0.59196  0.46204  0.97300  Biso   1.000  C
  C68      1.0000 0.69640  0.41720  0.94320  Biso   1.000  C
  C69      1.0000 0.46204  0.59196  0.97300  Biso   1.000  C
  C70      1.0000 0.41720  0.69640  0.94320  Biso   1.000  C
  C71      1.0000 0.97300  0.97300  0.59196  Biso   1.000  C
  C72      1.0000 0.94320  0.94320  0.69640  Biso   1.000  C
  O1       1.0000 0.25000  0.25000  0.25000  Biso   1.000  O
  O2       1.0000 0.75000  0.75000  0.75000  Biso   1.000  O
  O3       1.0000 0.07193  0.36665  0.36665  Biso   1.000  O
  O4       1.0000 0.36665  0.07193  0.19477  Biso   1.000  O
  O5       1.0000 0.36665  0.19477  0.07193  Biso   1.000  O
  O6       1.0000 0.19477  0.36665  0.36665  Biso   1.000  O
  O7       1.0000 0.07193  0.36665  0.19477  Biso   1.000  O
  O8       1.0000 0.36665  0.19477  0.36665  Biso   1.000  O
  O9       1.0000 0.36665  0.07193  0.36665  Biso   1.000  O
  O10      1.0000 0.19477  0.36665  0.07193  Biso   1.000  O
  O11      1.0000 0.07193  0.19477  0.36665  Biso   1.000  O
  O12      1.0000 0.36665  0.36665  0.07193  Biso   1.000  O
  O13      1.0000 0.36665  0.36665  0.19477  Biso   1.000  O
  O14      1.0000 0.19477  0.07193  0.36665  Biso   1.000  O
  O15      1.0000 0.63335  0.92807  0.63335  Biso   1.000  O
  O16      1.0000 0.92807  0.63335  0.80523  Biso   1.000  O
  O17      1.0000 0.80523  0.63335  0.92807  Biso   1.000  O
  O18      1.0000 0.63335  0.80523  0.63335  Biso   1.000  O
  O19      1.0000 0.63335  0.92807  0.80523  Biso   1.000  O
  O20      1.0000 0.80523  0.63335  0.63335  Biso   1.000  O
  O21      1.0000 0.92807  0.63335  0.63335  Biso   1.000  O
  O22      1.0000 0.63335  0.80523  0.92807  Biso   1.000  O
  O23      1.0000 0.80523  0.92807  0.63335  Biso   1.000  O
  O24      1.0000 0.63335  0.63335  0.92807  Biso   1.000  O
  O25      1.0000 0.63335  0.63335  0.80523  Biso   1.000  O
  O26      1.0000 0.92807  0.80523  0.63335  Biso   1.000  O
  H1       1.0000 0.99442  0.62939  0.28203  Biso   1.000  H
  H2       1.0000 0.09768  0.52814  0.27068  Biso   1.000  H
  H3       1.0000 0.10018  0.62380  0.28140  Biso   1.000  H
  H4       1.0000 0.63289  0.09003  0.99466  Biso   1.000  H
  H5       1.0000 0.61995  0.99511  0.10397  Biso   1.000  H
  H6       1.0000 0.52848  0.10715  0.09365  Biso   1.000  H
  H7       1.0000 0.27995  0.99729  0.11189  Biso   1.000  H
  H8       1.0000 0.28324  0.08031  0.99627  Biso   1.000  H
  H9       1.0000 0.27092  0.11469  0.08412  Biso   1.000  H
  H10      1.0000 0.05061  0.27263  0.54554  Biso   1.000  H
  H11      1.0000 0.01162  0.28507  0.65655  Biso   1.000  H
  H12      1.0000 0.13005  0.27641  0.57924  Biso   1.000  H
  H13      1.0000 0.04405  0.28515  0.01352  Biso   1.000  H
  H14      1.0000 0.01631  0.27612  0.13091  Biso   1.000  H
  H15      1.0000 0.13192  0.27284  0.04786  Biso   1.000  H
  H16      1.0000 0.52810  0.10279  0.27068  Biso   1.000  H
  H17      1.0000 0.62453  0.99455  0.28148  Biso   1.000  H
  H18      1.0000 0.62870  0.09495  0.28195  Biso   1.000  H
  H19      1.0000 0.28324  0.99627  0.64018  Biso   1.000  H
  H20      1.0000 0.27092  0.08412  0.53028  Biso   1.000  H
  H21      1.0000 0.27995  0.11189  0.61087  Biso   1.000  H
  H22      1.0000 0.10184  0.62216  0.99479  Biso   1.000  H
  H23      1.0000 0.09596  0.52825  0.10509  Biso   1.000  H
  H24      1.0000 0.99449  0.63092  0.09240  Biso   1.000  H
  H25      1.0000 0.10504  0.09602  0.52825  Biso   1.000  H
  H26      1.0000 0.09246  0.99448  0.63086  Biso   1.000  H
  H27      1.0000 0.99478  0.10178  0.62222  Biso   1.000  H
  H28      1.0000 0.58591  0.27715  0.00955  Biso   1.000  H
  H29      1.0000 0.54120  0.27215  0.12893  Biso   1.000  H
  H30      1.0000 0.65421  0.28481  0.05380  Biso   1.000  H
  H31      1.0000 0.27093  0.53034  0.11487  Biso   1.000  H
  H32      1.0000 0.27992  0.61062  0.99737  Biso   1.000  H
  H33      1.0000 0.28326  0.64036  0.08004  Biso   1.000  H
  H34      1.0000 0.99967  0.11683  0.27921  Biso   1.000  H
  H35      1.0000 0.07328  0.99827  0.28374  Biso   1.000  H
  H36      1.0000 0.11933  0.07718  0.27115  Biso   1.000  H
  H37      1.0000 0.43697  0.86636  0.72541  Biso   1.000  H
  H38      1.0000 0.34055  0.97460  0.71461  Biso   1.000  H
  H39      1.0000 0.44115  0.96676  0.72588  Biso   1.000  H
  H40      1.0000 0.96777  0.34070  0.97691  Biso   1.000  H
  H41      1.0000 0.97365  0.43460  0.86660  Biso   1.000  H
  H42      1.0000 0.86630  0.44337  0.96421  Biso   1.000  H
  H43      1.0000 0.88812  0.72005  0.00272  Biso   1.000  H
  H44      1.0000 0.91586  0.72908  0.88533  Biso   1.000  H
  H45      1.0000 0.00373  0.71677  0.91967  Biso   1.000  H
  H46      1.0000 0.71485  0.95593  0.34272  Biso   1.000  H
  H47      1.0000 0.72716  0.86808  0.45263  Biso   1.000  H
  H48      1.0000 0.72388  0.98370  0.42332  Biso   1.000  H
  H49      1.0000 0.72716  0.95212  0.86808  Biso   1.000  H
  H50      1.0000 0.72388  0.86910  0.98370  Biso   1.000  H
  H51      1.0000 0.71485  0.98650  0.95593  Biso   1.000  H
  H52      1.0000 0.96949  0.34059  0.71461  Biso   1.000  H
  H53      1.0000 0.86623  0.44183  0.72595  Biso   1.000  H
  H54      1.0000 0.97200  0.43625  0.72533  Biso   1.000  H
  H55      1.0000 0.88343  0.72900  0.46899  Biso   1.000  H
  H56      1.0000 0.92242  0.71656  0.35799  Biso   1.000  H
  H57      1.0000 0.00186  0.72034  0.39169  Biso   1.000  H
  H58      1.0000 0.43240  0.86692  0.97579  Biso   1.000  H
  H59      1.0000 0.44534  0.96184  0.86647  Biso   1.000  H
  H60      1.0000 0.34093  0.97896  0.96546  Biso   1.000  H
  H61      1.0000 0.96428  0.86629  0.44331  Biso   1.000  H
  H62      1.0000 0.97685  0.96783  0.34070  Biso   1.000  H
  H63      1.0000 0.86659  0.97359  0.43467  Biso   1.000  H
  H64      1.0000 0.72385  0.42307  0.86918  Biso   1.000  H
  H65      1.0000 0.71486  0.34279  0.98668  Biso   1.000  H
  H66      1.0000 0.72718  0.45281  0.95186  Biso   1.000  H
  H67      1.0000 0.35365  0.71607  0.00074  Biso   1.000  H
  H68      1.0000 0.39836  0.72108  0.88136  Biso   1.000  H
  H69      1.0000 0.46666  0.72874  0.92561  Biso   1.000  H
  H70      1.0000 0.94509  0.87008  0.72767  Biso   1.000  H
  H71      1.0000 0.87148  0.98864  0.72314  Biso   1.000  H
  H72      1.0000 0.99114  0.94899  0.71508  Biso   1.000  H
  Zn9      1.0000 0.95205  0.13071  0.94671  Biso   1.000  Zn
  Zn10     1.0000 0.95205  0.95633  0.94671  Biso   1.000  Zn
  Zn11     1.0000 0.12643  0.95633  0.94671  Biso   1.000  Zn
  Zn12     1.0000 0.95205  0.95633  0.12110  Biso   1.000  Zn
  Zn13     1.0000 0.54178  0.54109  0.53147  Biso   1.000  Zn
  Zn14     1.0000 0.54178  0.37148  0.53147  Biso   1.000  Zn
  Zn15     1.0000 0.54178  0.54109  0.36186  Biso   1.000  Zn
  Zn16     1.0000 0.37217  0.54109  0.53147  Biso   1.000  Zn
  H73      1.0000 0.69998  0.40513  0.69465  Biso   1.000  H
  H74      1.0000 0.69998  0.18605  0.69465  Biso   1.000  H
  H75      1.0000 0.40085  0.70426  0.17643  Biso   1.000  H
  H76      1.0000 0.18177  0.70426  0.39552  Biso   1.000  H
  H77      1.0000 0.40085  0.70426  0.69465  Biso   1.000  H
  H78      1.0000 0.18177  0.70426  0.69465  Biso   1.000  H
  H79      1.0000 0.69998  0.18605  0.39552  Biso   1.000  H
  H80      1.0000 0.69998  0.40513  0.17643  Biso   1.000  H
  H81      1.0000 0.69998  0.70426  0.39552  Biso   1.000  H
  H82      1.0000 0.69998  0.70426  0.17643  Biso   1.000  H
  H83      1.0000 0.18177  0.40513  0.69465  Biso   1.000  H
  H84      1.0000 0.40085  0.18605  0.69465  Biso   1.000  H
  C73      1.0000 0.76601  0.28886  0.76067  Biso   1.000  C
  C74      1.0000 0.71777  0.34272  0.71244  Biso   1.000  C
  C75      1.0000 0.76601  0.17027  0.76067  Biso   1.000  C
  C76      1.0000 0.71777  0.21288  0.71244  Biso   1.000  C
  C77      1.0000 0.28458  0.77029  0.16065  Biso   1.000  C
  C78      1.0000 0.33844  0.72205  0.20326  Biso   1.000  C
  C79      1.0000 0.16599  0.77029  0.27924  Biso   1.000  C
  C80      1.0000 0.20860  0.72205  0.33311  Biso   1.000  C
  C81      1.0000 0.28458  0.77029  0.76067  Biso   1.000  C
  C82      1.0000 0.33844  0.72205  0.71244  Biso   1.000  C
  C83      1.0000 0.16599  0.77029  0.76067  Biso   1.000  C
  C84      1.0000 0.20860  0.72205  0.71244  Biso   1.000  C
  C85      1.0000 0.76601  0.17027  0.27924  Biso   1.000  C
  C86      1.0000 0.71777  0.21288  0.33311  Biso   1.000  C
  C87      1.0000 0.76601  0.28886  0.16065  Biso   1.000  C
  C88      1.0000 0.71777  0.34272  0.20326  Biso   1.000  C
  C89      1.0000 0.76601  0.77029  0.27924  Biso   1.000  C
  C90      1.0000 0.71777  0.72205  0.33311  Biso   1.000  C
  C91      1.0000 0.76601  0.77029  0.16065  Biso   1.000  C
  C92      1.0000 0.71777  0.72205  0.20327  Biso   1.000  C
  C93      1.0000 0.16599  0.28886  0.76067  Biso   1.000  C
  C94      1.0000 0.20860  0.34272  0.71244  Biso   1.000  C
  C95      1.0000 0.28458  0.17027  0.76067  Biso   1.000  C
  C96      1.0000 0.33844  0.21288  0.71244  Biso   1.000  C
  C97      1.0000 0.79958  0.19600  0.79424  Biso   1.000  C
  C98      1.0000 0.69486  0.30072  0.68952  Biso   1.000  C
  C99      1.0000 0.63315  0.36242  0.62782  Biso   1.000  C
  C100     1.0000 0.85666  0.13891  0.85132  Biso   1.000  C
  C101     1.0000 0.19172  0.80386  0.18638  Biso   1.000  C
  C102     1.0000 0.29644  0.69914  0.29110  Biso   1.000  C
  C103     1.0000 0.35814  0.63743  0.35281  Biso   1.000  C
  C104     1.0000 0.13463  0.86094  0.12930  Biso   1.000  C
  C105     1.0000 0.19172  0.80386  0.79424  Biso   1.000  C
  C106     1.0000 0.29644  0.69914  0.68952  Biso   1.000  C
  C107     1.0000 0.35814  0.63743  0.62782  Biso   1.000  C
  C108     1.0000 0.13463  0.86094  0.85132  Biso   1.000  C
  C109     1.0000 0.79958  0.19600  0.18638  Biso   1.000  C
  C110     1.0000 0.69486  0.30072  0.29110  Biso   1.000  C
  C111     1.0000 0.63315  0.36242  0.35281  Biso   1.000  C
  C112     1.0000 0.85666  0.13891  0.12930  Biso   1.000  C
  C113     1.0000 0.79958  0.80386  0.18638  Biso   1.000  C
  C114     1.0000 0.69486  0.69914  0.29110  Biso   1.000  C
  C115     1.0000 0.63315  0.63743  0.35281  Biso   1.000  C
  C116     1.0000 0.85666  0.86094  0.12930  Biso   1.000  C
  C117     1.0000 0.19172  0.19600  0.79424  Biso   1.000  C
  C118     1.0000 0.29644  0.30072  0.68952  Biso   1.000  C
  C119     1.0000 0.35814  0.36242  0.62782  Biso   1.000  C
  C120     1.0000 0.13463  0.13891  0.85132  Biso   1.000  C
  O27      1.0000 0.60883  0.45046  0.60350  Biso   1.000  O
  O28      1.0000 0.87817  0.17610  0.87283  Biso   1.000  O
  O29      1.0000 0.60883  0.32303  0.60350  Biso   1.000  O
  O30      1.0000 0.87817  0.05872  0.87283  Biso   1.000  O
  O31      1.0000 0.44618  0.61311  0.31341  Biso   1.000  O
  O32      1.0000 0.17182  0.88245  0.04910  Biso   1.000  O
  O33      1.0000 0.31875  0.61311  0.44084  Biso   1.000  O
  O34      1.0000 0.05444  0.88245  0.16648  Biso   1.000  O
  O35      1.0000 0.44618  0.61311  0.60350  Biso   1.000  O
  O36      1.0000 0.17182  0.88245  0.87283  Biso   1.000  O
  O37      1.0000 0.31875  0.61311  0.60350  Biso   1.000  O
  O38      1.0000 0.05444  0.88245  0.87283  Biso   1.000  O
  O39      1.0000 0.60883  0.32303  0.44084  Biso   1.000  O
  O40      1.0000 0.87817  0.05872  0.16648  Biso   1.000  O
  O41      1.0000 0.60883  0.45046  0.31341  Biso   1.000  O
  O42      1.0000 0.87817  0.17610  0.04910  Biso   1.000  O
  O43      1.0000 0.60883  0.61311  0.44084  Biso   1.000  O
  O44      1.0000 0.87817  0.88245  0.16648  Biso   1.000  O
  O45      1.0000 0.60883  0.61311  0.31341  Biso   1.000  O
  O46      1.0000 0.87817  0.88245  0.04910  Biso   1.000  O
  O47      1.0000 0.31875  0.45046  0.60350  Biso   1.000  O
  O48      1.0000 0.05444  0.17610  0.87283  Biso   1.000  O
  O49      1.0000 0.44618  0.32303  0.60350  Biso   1.000  O
  O50      1.0000 0.17182  0.05872  0.87283  Biso   1.000  O
  O51      1.0000 0.48818  0.50241  0.49280  Biso   1.000  O
