data_image0
_cell_length_a       19.905
_cell_length_b       20.55
_cell_length_c       20.55
_cell_angle_alpha    90
_cell_angle_beta     90
_cell_angle_gamma    90

_symmetry_space_group_name_H-M    "P 1"
_symmetry_int_tables_number       1

loop_
  _symmetry_equiv_pos_as_xyz
  'x, y, z'

loop_
  _atom_site_label
  _atom_site_occupancy
  _atom_site_fract_x
  _atom_site_fract_y
  _atom_site_fract_z
  _atom_site_thermal_displace_type
  _atom_site_B_iso_or_equiv
  _atom_site_type_symbol
  C1       1.0000 0.50000  0.40588  0.59412  Biso   1.000  C
  C2       1.0000 0.50000  0.59412  0.59412  Biso   1.000  C
  C3       1.0000 0.00000  0.50000  0.00000  Biso   1.000  C
  C4       1.0000 0.50000  0.59412  0.40588  Biso   1.000  C
  C5       1.0000 0.00000  0.00000  0.50000  Biso   1.000  C
  C6       1.0000 0.50000  0.40588  0.40588  Biso   1.000  C
  C7       1.0000 0.72520  0.74910  0.59860  Biso   1.000  C
  C8       1.0000 0.81340  0.17550  0.40140  Biso   1.000  C
  C9       1.0000 0.74950  0.06120  0.50000  Biso   1.000  C
  C10      1.0000 0.06260  0.75650  0.50000  Biso   1.000  C
  C11      1.0000 0.72520  0.59860  0.25090  Biso   1.000  C
  C12      1.0000 0.00000  0.50000  0.05700  Biso   1.000  C
  C13      1.0000 0.27480  0.74910  0.59860  Biso   1.000  C
  C14      1.0000 0.00000  0.50000  0.94300  Biso   1.000  C
  C15      1.0000 0.81340  0.40140  0.17550  Biso   1.000  C
  C16      1.0000 0.18660  0.59860  0.17550  Biso   1.000  C
  C17      1.0000 0.18660  0.82450  0.40140  Biso   1.000  C
  C18      1.0000 0.81340  0.59860  0.82450  Biso   1.000  C
  C19      1.0000 0.18660  0.82450  0.59860  Biso   1.000  C
  C20      1.0000 0.81340  0.40140  0.82450  Biso   1.000  C
  C21      1.0000 0.74950  0.50000  0.06120  Biso   1.000  C
  C22      1.0000 0.00000  0.05700  0.50000  Biso   1.000  C
  C23      1.0000 0.18660  0.17550  0.59860  Biso   1.000  C
  C24      1.0000 0.27480  0.74910  0.40140  Biso   1.000  C
  C25      1.0000 0.25050  0.06120  0.50000  Biso   1.000  C
  C26      1.0000 0.72520  0.74910  0.40140  Biso   1.000  C
  C27      1.0000 0.72520  0.25090  0.40140  Biso   1.000  C
  C28      1.0000 0.27480  0.40140  0.25090  Biso   1.000  C
  C29      1.0000 0.93740  0.24350  0.50000  Biso   1.000  C
  C30      1.0000 0.06260  0.50000  0.75650  Biso   1.000  C
  C31      1.0000 0.74950  0.93880  0.50000  Biso   1.000  C
  C32      1.0000 0.94160  0.50000  0.00000  Biso   1.000  C
  C33      1.0000 0.25050  0.50000  0.93880  Biso   1.000  C
  C34      1.0000 0.06260  0.50000  0.24350  Biso   1.000  C
  C35      1.0000 0.27480  0.59860  0.74910  Biso   1.000  C
  C36      1.0000 0.81340  0.82450  0.59860  Biso   1.000  C
  C37      1.0000 0.05840  0.00000  0.50000  Biso   1.000  C
  C38      1.0000 0.81340  0.82450  0.40140  Biso   1.000  C
  C39      1.0000 0.81340  0.59860  0.17550  Biso   1.000  C
  C40      1.0000 0.25050  0.50000  0.06120  Biso   1.000  C
  C41      1.0000 0.18660  0.17550  0.40140  Biso   1.000  C
  C42      1.0000 0.00000  0.94300  0.50000  Biso   1.000  C
  C43      1.0000 0.27480  0.25090  0.40140  Biso   1.000  C
  C44      1.0000 0.93740  0.50000  0.24350  Biso   1.000  C
  C45      1.0000 0.27480  0.40140  0.74910  Biso   1.000  C
  C46      1.0000 0.05840  0.50000  0.00000  Biso   1.000  C
  C47      1.0000 0.27480  0.25090  0.59860  Biso   1.000  C
  C48      1.0000 0.72520  0.40140  0.74910  Biso   1.000  C
  C49      1.0000 0.72520  0.59860  0.74910  Biso   1.000  C
  C50      1.0000 0.93740  0.50000  0.75650  Biso   1.000  C
  C51      1.0000 0.06260  0.24350  0.50000  Biso   1.000  C
  C52      1.0000 0.74950  0.50000  0.93880  Biso   1.000  C
  C53      1.0000 0.94160  0.00000  0.50000  Biso   1.000  C
  C54      1.0000 0.72520  0.40140  0.25090  Biso   1.000  C
  C55      1.0000 0.81340  0.17550  0.59860  Biso   1.000  C
  C56      1.0000 0.27480  0.59860  0.25090  Biso   1.000  C
  C57      1.0000 0.18660  0.59860  0.82450  Biso   1.000  C
  C58      1.0000 0.18660  0.40140  0.82450  Biso   1.000  C
  C59      1.0000 0.72520  0.25090  0.59860  Biso   1.000  C
  C60      1.0000 0.93740  0.75650  0.50000  Biso   1.000  C
  C61      1.0000 0.18660  0.40140  0.17550  Biso   1.000  C
  C62      1.0000 0.25050  0.93880  0.50000  Biso   1.000  C
  C63      1.0000 0.12210  0.50000  0.11730  Biso   1.000  C
  C64      1.0000 0.71540  0.50000  0.25618  Biso   1.000  C
  C65      1.0000 0.20520  0.44137  0.19010  Biso   1.000  C
  C66      1.0000 0.78760  0.50000  0.96680  Biso   1.000  C
  C67      1.0000 0.74240  0.55860  0.76510  Biso   1.000  C
  C68      1.0000 0.71540  0.74382  0.50000  Biso   1.000  C
  C69      1.0000 0.78760  0.03320  0.50000  Biso   1.000  C
  C70      1.0000 0.82001  0.50000  0.16675  Biso   1.000  C
  C71      1.0000 0.71540  0.25618  0.50000  Biso   1.000  C
  C72      1.0000 0.28460  0.50000  0.25618  Biso   1.000  C
  C73      1.0000 0.20520  0.19010  0.55863  Biso   1.000  C
  C74      1.0000 0.85400  0.50000  0.94880  Biso   1.000  C
  C75      1.0000 0.17999  0.50000  0.83325  Biso   1.000  C
  C76      1.0000 0.20520  0.80990  0.55863  Biso   1.000  C
  C77      1.0000 0.82001  0.50000  0.83325  Biso   1.000  C
  C78      1.0000 0.96570  0.20630  0.50000  Biso   1.000  C
  C79      1.0000 0.14600  0.50000  0.94880  Biso   1.000  C
  C80      1.0000 0.79480  0.19010  0.55863  Biso   1.000  C
  C81      1.0000 0.85400  0.94880  0.50000  Biso   1.000  C
  C82      1.0000 0.79480  0.44137  0.19010  Biso   1.000  C
  C83      1.0000 0.78760  0.50000  0.03320  Biso   1.000  C
  C84      1.0000 0.21240  0.50000  0.03320  Biso   1.000  C
  C85      1.0000 0.96570  0.50000  0.79370  Biso   1.000  C
  C86      1.0000 0.79480  0.80990  0.55863  Biso   1.000  C
  C87      1.0000 0.25760  0.76510  0.44140  Biso   1.000  C
  C88      1.0000 0.66150  0.50000  0.69780  Biso   1.000  C
  C89      1.0000 0.21240  0.03320  0.50000  Biso   1.000  C
  C90      1.0000 0.25760  0.23490  0.44140  Biso   1.000  C
  C91      1.0000 0.28460  0.74382  0.50000  Biso   1.000  C
  C92      1.0000 0.33850  0.69780  0.50000  Biso   1.000  C
  C93      1.0000 0.20520  0.55863  0.19010  Biso   1.000  C
  C94      1.0000 0.94530  0.50000  0.85740  Biso   1.000  C
  C95      1.0000 0.21240  0.50000  0.96680  Biso   1.000  C
  C96      1.0000 0.85400  0.05120  0.50000  Biso   1.000  C
  C97      1.0000 0.94530  0.85740  0.50000  Biso   1.000  C
  C98      1.0000 0.14600  0.94880  0.50000  Biso   1.000  C
  C99      1.0000 0.74240  0.44140  0.76510  Biso   1.000  C
  C100     1.0000 0.74240  0.55860  0.23490  Biso   1.000  C
  C101     1.0000 0.87790  0.50000  0.88270  Biso   1.000  C
  C102     1.0000 0.96570  0.50000  0.20630  Biso   1.000  C
  C103     1.0000 0.33850  0.50000  0.69780  Biso   1.000  C
  C104     1.0000 0.14600  0.05120  0.50000  Biso   1.000  C
  C105     1.0000 0.74240  0.76510  0.55860  Biso   1.000  C
  C106     1.0000 0.66150  0.69780  0.50000  Biso   1.000  C
  C107     1.0000 0.79480  0.55863  0.19010  Biso   1.000  C
  C108     1.0000 0.33850  0.50000  0.30220  Biso   1.000  C
  C109     1.0000 0.21240  0.96680  0.50000  Biso   1.000  C
  C110     1.0000 0.05470  0.14260  0.50000  Biso   1.000  C
  C111     1.0000 0.20520  0.80990  0.44137  Biso   1.000  C
  C112     1.0000 0.28460  0.50000  0.74382  Biso   1.000  C
  C113     1.0000 0.05470  0.50000  0.14260  Biso   1.000  C
  C114     1.0000 0.20520  0.19010  0.44137  Biso   1.000  C
  C115     1.0000 0.66150  0.30220  0.50000  Biso   1.000  C
  C116     1.0000 0.03430  0.50000  0.20630  Biso   1.000  C
  C117     1.0000 0.05470  0.50000  0.85740  Biso   1.000  C
  C118     1.0000 0.12210  0.50000  0.88270  Biso   1.000  C
  C119     1.0000 0.66150  0.50000  0.30220  Biso   1.000  C
  C120     1.0000 0.12210  0.88270  0.50000  Biso   1.000  C
  C121     1.0000 0.82001  0.16675  0.50000  Biso   1.000  C
  C122     1.0000 0.20520  0.44137  0.80990  Biso   1.000  C
  C123     1.0000 0.25760  0.44140  0.23490  Biso   1.000  C
  C124     1.0000 0.82001  0.83325  0.50000  Biso   1.000  C
  C125     1.0000 0.74240  0.23490  0.44140  Biso   1.000  C
  C126     1.0000 0.33850  0.30220  0.50000  Biso   1.000  C
  C127     1.0000 0.87790  0.88270  0.50000  Biso   1.000  C
  C128     1.0000 0.74240  0.23490  0.55860  Biso   1.000  C
  C129     1.0000 0.03430  0.20630  0.50000  Biso   1.000  C
  C130     1.0000 0.96570  0.79370  0.50000  Biso   1.000  C
  C131     1.0000 0.87790  0.50000  0.11730  Biso   1.000  C
  C132     1.0000 0.94530  0.14260  0.50000  Biso   1.000  C
  C133     1.0000 0.87790  0.11730  0.50000  Biso   1.000  C
  C134     1.0000 0.25760  0.55860  0.76510  Biso   1.000  C
  C135     1.0000 0.94530  0.50000  0.14260  Biso   1.000  C
  C136     1.0000 0.25760  0.44140  0.76510  Biso   1.000  C
  C137     1.0000 0.17999  0.50000  0.16675  Biso   1.000  C
  C138     1.0000 0.71540  0.50000  0.74382  Biso   1.000  C
  C139     1.0000 0.03430  0.79370  0.50000  Biso   1.000  C
  C140     1.0000 0.79480  0.80990  0.44137  Biso   1.000  C
  C141     1.0000 0.79480  0.44137  0.80990  Biso   1.000  C
  C142     1.0000 0.74240  0.76510  0.44140  Biso   1.000  C
  C143     1.0000 0.25760  0.55860  0.23490  Biso   1.000  C
  C144     1.0000 0.79480  0.19010  0.44137  Biso   1.000  C
  C145     1.0000 0.17999  0.83325  0.50000  Biso   1.000  C
  C146     1.0000 0.78760  0.96680  0.50000  Biso   1.000  C
  C147     1.0000 0.20520  0.55863  0.80990  Biso   1.000  C
  C148     1.0000 0.74240  0.44140  0.23490  Biso   1.000  C
  C149     1.0000 0.85400  0.50000  0.05120  Biso   1.000  C
  C150     1.0000 0.28460  0.25618  0.50000  Biso   1.000  C
  C151     1.0000 0.05470  0.85740  0.50000  Biso   1.000  C
  C152     1.0000 0.79480  0.55863  0.80990  Biso   1.000  C
  C153     1.0000 0.17999  0.16675  0.50000  Biso   1.000  C
  C154     1.0000 0.12210  0.11730  0.50000  Biso   1.000  C
  C155     1.0000 0.25760  0.23490  0.55860  Biso   1.000  C
  C156     1.0000 0.14600  0.50000  0.05120  Biso   1.000  C
  C157     1.0000 0.25760  0.76510  0.55860  Biso   1.000  C
  C158     1.0000 0.03430  0.50000  0.79370  Biso   1.000  C
  C159     1.0000 0.42304  0.46732  0.64193  Biso   1.000  C
  C160     1.0000 0.37158  0.32229  0.55430  Biso   1.000  C
  C161     1.0000 0.57696  0.64193  0.46732  Biso   1.000  C
  C162     1.0000 0.37158  0.44570  0.32229  Biso   1.000  C
  C163     1.0000 0.57696  0.35807  0.46732  Biso   1.000  C
  C164     1.0000 0.37158  0.67771  0.55430  Biso   1.000  C
  C165     1.0000 0.42304  0.35807  0.53268  Biso   1.000  C
  C166     1.0000 0.62842  0.32229  0.44570  Biso   1.000  C
  C167     1.0000 0.37158  0.67771  0.44570  Biso   1.000  C
  C168     1.0000 0.62842  0.44570  0.67771  Biso   1.000  C
  C169     1.0000 0.62842  0.44570  0.32229  Biso   1.000  C
  C170     1.0000 0.37158  0.32229  0.44570  Biso   1.000  C
  C171     1.0000 0.00000  0.50000  0.90020  Biso   1.000  C
  C172     1.0000 0.42304  0.64193  0.46732  Biso   1.000  C
  C173     1.0000 0.89740  0.00000  0.50000  Biso   1.000  C
  C174     1.0000 0.00000  0.50000  0.09980  Biso   1.000  C
  C175     1.0000 0.42304  0.53268  0.35807  Biso   1.000  C
  C176     1.0000 0.37158  0.55430  0.67771  Biso   1.000  C
  C177     1.0000 0.62842  0.32229  0.55430  Biso   1.000  C
  C178     1.0000 0.62842  0.55430  0.67771  Biso   1.000  C
  C179     1.0000 0.42304  0.35807  0.46732  Biso   1.000  C
  C180     1.0000 0.62842  0.67771  0.44570  Biso   1.000  C
  C181     1.0000 0.57696  0.53268  0.64193  Biso   1.000  C
  C182     1.0000 0.42304  0.46732  0.35807  Biso   1.000  C
  C183     1.0000 0.10260  0.00000  0.50000  Biso   1.000  C
  C184     1.0000 0.62842  0.55430  0.32229  Biso   1.000  C
  C185     1.0000 0.62842  0.67771  0.55430  Biso   1.000  C
  C186     1.0000 0.57696  0.53268  0.35807  Biso   1.000  C
  C187     1.0000 0.57696  0.64193  0.53268  Biso   1.000  C
  C188     1.0000 0.37158  0.55430  0.32229  Biso   1.000  C
  C189     1.0000 0.57696  0.46732  0.35807  Biso   1.000  C
  C190     1.0000 0.37158  0.44570  0.67771  Biso   1.000  C
  C191     1.0000 0.00000  0.09980  0.50000  Biso   1.000  C
  C192     1.0000 0.42304  0.53268  0.64193  Biso   1.000  C
  C193     1.0000 0.57696  0.46732  0.64193  Biso   1.000  C
  C194     1.0000 0.42304  0.64193  0.53268  Biso   1.000  C
  C195     1.0000 0.89740  0.50000  0.00000  Biso   1.000  C
  C196     1.0000 0.00000  0.90020  0.50000  Biso   1.000  C
  C197     1.0000 0.57696  0.35807  0.53268  Biso   1.000  C
  C198     1.0000 0.10260  0.50000  0.00000  Biso   1.000  C
  O1       1.0000 0.50239  0.48662  0.92457  Biso   1.000  O
  O2       1.0000 0.50239  0.48662  0.06848  Biso   1.000  O
  O3       1.0000 0.50239  0.91467  0.49653  Biso   1.000  O
  O4       1.0000 0.50239  0.05857  0.49653  Biso   1.000  O
  O5       1.0000 0.06047  0.48662  0.49653  Biso   1.000  O
  O6       1.0000 0.94431  0.48662  0.49653  Biso   1.000  O
  O7       1.0000 0.25763  0.72369  0.25945  Biso   1.000  O
  O8       1.0000 0.15639  0.82175  0.16139  Biso   1.000  O
  O9       1.0000 0.74714  0.72369  0.73360  Biso   1.000  O
  O10      1.0000 0.84838  0.82175  0.83166  Biso   1.000  O
  O11      1.0000 0.74714  0.24954  0.25945  Biso   1.000  O
  O12      1.0000 0.84838  0.15148  0.16139  Biso   1.000  O
  O13      1.0000 0.25763  0.24954  0.73360  Biso   1.000  O
  O14      1.0000 0.15639  0.15148  0.83166  Biso   1.000  O
  O15      1.0000 0.74714  0.24954  0.73360  Biso   1.000  O
  O16      1.0000 0.84838  0.15148  0.83166  Biso   1.000  O
  O17      1.0000 0.25763  0.24954  0.25945  Biso   1.000  O
  O18      1.0000 0.15639  0.15148  0.16139  Biso   1.000  O
  O19      1.0000 0.74714  0.72369  0.25945  Biso   1.000  O
  O20      1.0000 0.84838  0.82175  0.16139  Biso   1.000  O
  O21      1.0000 0.25763  0.72369  0.73360  Biso   1.000  O
  O22      1.0000 0.15639  0.82175  0.83166  Biso   1.000  O
  O23      1.0000 0.22653  0.75382  0.99597  Biso   1.000  O
  O24      1.0000 0.77824  0.75382  0.99597  Biso   1.000  O
  O25      1.0000 0.77824  0.21942  0.99597  Biso   1.000  O
  O26      1.0000 0.22653  0.21942  0.99597  Biso   1.000  O
  O27      1.0000 0.22653  0.98606  0.76372  Biso   1.000  O
  O28      1.0000 0.22653  0.98606  0.22933  Biso   1.000  O
  O29      1.0000 0.77824  0.98606  0.22933  Biso   1.000  O
  O30      1.0000 0.77824  0.98606  0.76372  Biso   1.000  O
  O31      1.0000 0.01917  0.75382  0.76372  Biso   1.000  O
  O32      1.0000 0.01917  0.21942  0.76372  Biso   1.000  O
  O33      1.0000 0.01917  0.21942  0.22933  Biso   1.000  O
  O34      1.0000 0.01917  0.75382  0.22933  Biso   1.000  O
  O35      1.0000 0.34642  0.63769  0.09498  Biso   1.000  O
  O36      1.0000 0.65835  0.63769  0.89807  Biso   1.000  O
  O37      1.0000 0.65835  0.33555  0.09498  Biso   1.000  O
  O38      1.0000 0.34642  0.33555  0.89807  Biso   1.000  O
  O39      1.0000 0.34642  0.08507  0.64759  Biso   1.000  O
  O40      1.0000 0.34642  0.88817  0.34546  Biso   1.000  O
  O41      1.0000 0.65835  0.08507  0.34546  Biso   1.000  O
  O42      1.0000 0.65835  0.88817  0.64759  Biso   1.000  O
  O43      1.0000 0.91695  0.63769  0.64759  Biso   1.000  O
  O44      1.0000 0.08783  0.33555  0.64759  Biso   1.000  O
  O45      1.0000 0.91695  0.33555  0.34546  Biso   1.000  O
  O46      1.0000 0.08783  0.63769  0.34546  Biso   1.000  O
  O47      1.0000 0.91695  0.33555  0.64759  Biso   1.000  O
  O48      1.0000 0.08783  0.33555  0.34546  Biso   1.000  O
  O49      1.0000 0.91695  0.63769  0.34546  Biso   1.000  O
  O50      1.0000 0.08783  0.63769  0.64759  Biso   1.000  O
  O51      1.0000 0.34642  0.88817  0.64759  Biso   1.000  O
  O52      1.0000 0.65835  0.08507  0.64759  Biso   1.000  O
  O53      1.0000 0.65835  0.88817  0.34546  Biso   1.000  O
  O54      1.0000 0.34642  0.08507  0.34546  Biso   1.000  O
  O55      1.0000 0.34642  0.33555  0.09498  Biso   1.000  O
  O56      1.0000 0.34642  0.63769  0.89807  Biso   1.000  O
  O57      1.0000 0.65835  0.63769  0.09498  Biso   1.000  O
  O58      1.0000 0.65835  0.33555  0.89807  Biso   1.000  O
  O59      1.0000 0.35769  0.62677  0.99597  Biso   1.000  O
  O60      1.0000 0.25960  0.72178  0.99597  Biso   1.000  O
  O61      1.0000 0.41278  0.57342  0.99597  Biso   1.000  O
  O62      1.0000 0.64708  0.62677  0.99597  Biso   1.000  O
  O63      1.0000 0.74517  0.72178  0.99597  Biso   1.000  O
  O64      1.0000 0.59200  0.57342  0.99597  Biso   1.000  O
  O65      1.0000 0.64708  0.34646  0.99597  Biso   1.000  O
  O66      1.0000 0.74517  0.25146  0.99597  Biso   1.000  O
  O67      1.0000 0.59200  0.39982  0.99597  Biso   1.000  O
  O68      1.0000 0.35769  0.34646  0.99597  Biso   1.000  O
  O69      1.0000 0.25960  0.25146  0.99597  Biso   1.000  O
  O70      1.0000 0.41278  0.39982  0.99597  Biso   1.000  O
  O71      1.0000 0.35769  0.98606  0.63668  Biso   1.000  O
  O72      1.0000 0.25960  0.98606  0.73169  Biso   1.000  O
  O73      1.0000 0.41278  0.98606  0.58332  Biso   1.000  O
  O74      1.0000 0.35769  0.98606  0.35637  Biso   1.000  O
  O75      1.0000 0.25960  0.98606  0.26136  Biso   1.000  O
  O76      1.0000 0.41278  0.98606  0.40973  Biso   1.000  O
  O77      1.0000 0.64708  0.98606  0.35637  Biso   1.000  O
  O78      1.0000 0.74517  0.98606  0.26136  Biso   1.000  O
  O79      1.0000 0.59200  0.98606  0.40973  Biso   1.000  O
  O80      1.0000 0.64708  0.98606  0.63668  Biso   1.000  O
  O81      1.0000 0.74517  0.98606  0.73169  Biso   1.000  O
  O82      1.0000 0.59200  0.98606  0.58332  Biso   1.000  O
  O83      1.0000 0.01917  0.62677  0.63668  Biso   1.000  O
  O84      1.0000 0.01917  0.72178  0.73169  Biso   1.000  O
  O85      1.0000 0.01917  0.57342  0.58332  Biso   1.000  O
  O86      1.0000 0.01917  0.34646  0.63668  Biso   1.000  O
  O87      1.0000 0.01917  0.25146  0.73169  Biso   1.000  O
  O88      1.0000 0.01917  0.39982  0.58332  Biso   1.000  O
  O89      1.0000 0.01917  0.34646  0.35637  Biso   1.000  O
  O90      1.0000 0.01917  0.25146  0.26136  Biso   1.000  O
  O91      1.0000 0.01917  0.39982  0.40973  Biso   1.000  O
  O92      1.0000 0.01917  0.62677  0.35637  Biso   1.000  O
  O93      1.0000 0.01917  0.72178  0.26136  Biso   1.000  O
  O94      1.0000 0.01917  0.57342  0.40973  Biso   1.000  O
  O95      1.0000 0.33092  0.65270  0.05503  Biso   1.000  O
  O96      1.0000 0.28348  0.69866  0.05303  Biso   1.000  O
  O97      1.0000 0.25537  0.72589  0.11490  Biso   1.000  O
  O98      1.0000 0.67385  0.65270  0.93802  Biso   1.000  O
  O99      1.0000 0.72129  0.69866  0.94002  Biso   1.000  O
  O100     1.0000 0.74941  0.72589  0.87815  Biso   1.000  O
  O101     1.0000 0.67385  0.32053  0.05503  Biso   1.000  O
  O102     1.0000 0.72129  0.27458  0.05303  Biso   1.000  O
  O103     1.0000 0.74941  0.24735  0.11490  Biso   1.000  O
  O104     1.0000 0.33092  0.32053  0.93802  Biso   1.000  O
  O105     1.0000 0.28348  0.27458  0.94002  Biso   1.000  O
  O106     1.0000 0.25537  0.24735  0.87815  Biso   1.000  O
  O107     1.0000 0.33092  0.04512  0.66261  Biso   1.000  O
  O108     1.0000 0.28348  0.04312  0.70856  Biso   1.000  O
  O109     1.0000 0.25537  0.10499  0.73579  Biso   1.000  O
  O110     1.0000 0.33092  0.92811  0.33044  Biso   1.000  O
  O111     1.0000 0.28348  0.93011  0.28449  Biso   1.000  O
  O112     1.0000 0.25537  0.86824  0.25726  Biso   1.000  O
  O113     1.0000 0.67385  0.04512  0.33044  Biso   1.000  O
  O114     1.0000 0.72129  0.04312  0.28449  Biso   1.000  O
  O115     1.0000 0.74941  0.10499  0.25726  Biso   1.000  O
  O116     1.0000 0.67385  0.92811  0.66261  Biso   1.000  O
  O117     1.0000 0.72129  0.93011  0.70856  Biso   1.000  O
  O118     1.0000 0.74941  0.86824  0.73579  Biso   1.000  O
  O119     1.0000 0.95819  0.65270  0.66261  Biso   1.000  O
  O120     1.0000 0.96025  0.69866  0.70856  Biso   1.000  O
  O121     1.0000 0.89638  0.72589  0.73579  Biso   1.000  O
  O122     1.0000 0.04659  0.32053  0.66261  Biso   1.000  O
  O123     1.0000 0.04452  0.27458  0.70856  Biso   1.000  O
  O124     1.0000 0.10839  0.24735  0.73579  Biso   1.000  O
  O125     1.0000 0.95819  0.32053  0.33044  Biso   1.000  O
  O126     1.0000 0.96025  0.27458  0.28449  Biso   1.000  O
  O127     1.0000 0.89638  0.24735  0.25726  Biso   1.000  O
  O128     1.0000 0.04659  0.65270  0.33044  Biso   1.000  O
  O129     1.0000 0.04452  0.69866  0.28449  Biso   1.000  O
  O130     1.0000 0.10839  0.72589  0.25726  Biso   1.000  O
  O131     1.0000 0.95819  0.32053  0.66261  Biso   1.000  O
  O132     1.0000 0.96025  0.27458  0.70856  Biso   1.000  O
  O133     1.0000 0.89638  0.24735  0.73579  Biso   1.000  O
  O134     1.0000 0.04659  0.32053  0.33044  Biso   1.000  O
  O135     1.0000 0.04452  0.27458  0.28449  Biso   1.000  O
  O136     1.0000 0.10839  0.24735  0.25726  Biso   1.000  O
  O137     1.0000 0.95819  0.65270  0.33044  Biso   1.000  O
  O138     1.0000 0.96025  0.69866  0.28449  Biso   1.000  O
  O139     1.0000 0.89638  0.72589  0.25726  Biso   1.000  O
  O140     1.0000 0.04659  0.65270  0.66261  Biso   1.000  O
  O141     1.0000 0.04452  0.69866  0.70856  Biso   1.000  O
  O142     1.0000 0.10839  0.72589  0.73579  Biso   1.000  O
  O143     1.0000 0.33092  0.92811  0.66261  Biso   1.000  O
  O144     1.0000 0.28348  0.93011  0.70856  Biso   1.000  O
  O145     1.0000 0.25537  0.86824  0.73579  Biso   1.000  O
  O146     1.0000 0.67385  0.04512  0.66261  Biso   1.000  O
  O147     1.0000 0.72129  0.04312  0.70856  Biso   1.000  O
  O148     1.0000 0.74941  0.10499  0.73579  Biso   1.000  O
  O149     1.0000 0.67385  0.92811  0.33044  Biso   1.000  O
  O150     1.0000 0.72129  0.93011  0.28449  Biso   1.000  O
  O151     1.0000 0.74941  0.86824  0.25726  Biso   1.000  O
  O152     1.0000 0.33092  0.04512  0.33044  Biso   1.000  O
  O153     1.0000 0.28348  0.04312  0.28449  Biso   1.000  O
  O154     1.0000 0.25537  0.10499  0.25726  Biso   1.000  O
  O155     1.0000 0.33092  0.32053  0.05503  Biso   1.000  O
  O156     1.0000 0.28348  0.27458  0.05303  Biso   1.000  O
  O157     1.0000 0.25537  0.24735  0.11490  Biso   1.000  O
  O158     1.0000 0.33092  0.65270  0.93802  Biso   1.000  O
  O159     1.0000 0.28348  0.69866  0.94002  Biso   1.000  O
  O160     1.0000 0.25537  0.72589  0.87815  Biso   1.000  O
  O161     1.0000 0.67385  0.65270  0.05503  Biso   1.000  O
  O162     1.0000 0.72129  0.69866  0.05303  Biso   1.000  O
  O163     1.0000 0.74941  0.72589  0.11490  Biso   1.000  O
  O164     1.0000 0.67385  0.32053  0.93802  Biso   1.000  O
  O165     1.0000 0.72129  0.27458  0.94002  Biso   1.000  O
  O166     1.0000 0.74941  0.24735  0.87815  Biso   1.000  O
  O167     1.0000 0.43190  0.55489  0.94313  Biso   1.000  O
  O168     1.0000 0.27821  0.70376  0.16786  Biso   1.000  O
  O169     1.0000 0.21154  0.76833  0.10839  Biso   1.000  O
  O170     1.0000 0.57288  0.55489  0.04993  Biso   1.000  O
  O171     1.0000 0.72657  0.70376  0.82519  Biso   1.000  O
  O172     1.0000 0.79323  0.76833  0.88466  Biso   1.000  O
  O173     1.0000 0.57288  0.41834  0.94312  Biso   1.000  O
  O174     1.0000 0.72657  0.26948  0.16786  Biso   1.000  O
  O175     1.0000 0.79323  0.20490  0.10839  Biso   1.000  O
  O176     1.0000 0.43190  0.41834  0.04993  Biso   1.000  O
  O177     1.0000 0.27821  0.26948  0.82519  Biso   1.000  O
  O178     1.0000 0.21154  0.20490  0.88466  Biso   1.000  O
  O179     1.0000 0.43190  0.93322  0.56480  Biso   1.000  O
  O180     1.0000 0.27821  0.15795  0.71367  Biso   1.000  O
  O181     1.0000 0.21154  0.09848  0.77824  Biso   1.000  O
  O182     1.0000 0.43190  0.04002  0.42825  Biso   1.000  O
  O183     1.0000 0.27821  0.81529  0.27938  Biso   1.000  O
  O184     1.0000 0.21154  0.87475  0.21481  Biso   1.000  O
  O185     1.0000 0.57288  0.93322  0.42825  Biso   1.000  O
  O186     1.0000 0.72657  0.15795  0.27938  Biso   1.000  O
  O187     1.0000 0.79323  0.09848  0.21481  Biso   1.000  O
  O188     1.0000 0.57288  0.04002  0.56480  Biso   1.000  O
  O189     1.0000 0.72657  0.81529  0.71367  Biso   1.000  O
  O190     1.0000 0.79323  0.87475  0.77824  Biso   1.000  O
  O191     1.0000 0.04132  0.55489  0.56480  Biso   1.000  O
  O192     1.0000 0.84170  0.70376  0.71367  Biso   1.000  O
  O193     1.0000 0.90310  0.76833  0.77824  Biso   1.000  O
  O194     1.0000 0.96346  0.41834  0.56480  Biso   1.000  O
  O195     1.0000 0.16307  0.26948  0.71367  Biso   1.000  O
  O196     1.0000 0.10168  0.20490  0.77824  Biso   1.000  O
  O197     1.0000 0.04132  0.41834  0.42825  Biso   1.000  O
  O198     1.0000 0.84170  0.26948  0.27938  Biso   1.000  O
  O199     1.0000 0.90310  0.20490  0.21481  Biso   1.000  O
  O200     1.0000 0.96346  0.55489  0.42825  Biso   1.000  O
  O201     1.0000 0.16307  0.70376  0.27938  Biso   1.000  O
  O202     1.0000 0.10168  0.76833  0.21481  Biso   1.000  O
  O203     1.0000 0.04132  0.41834  0.56480  Biso   1.000  O
  O204     1.0000 0.84170  0.26948  0.71367  Biso   1.000  O
  O205     1.0000 0.90310  0.20490  0.77824  Biso   1.000  O
  O206     1.0000 0.96346  0.41834  0.42825  Biso   1.000  O
  O207     1.0000 0.16307  0.26948  0.27938  Biso   1.000  O
  O208     1.0000 0.10168  0.20490  0.21481  Biso   1.000  O
  O209     1.0000 0.04132  0.55489  0.42825  Biso   1.000  O
  O210     1.0000 0.84170  0.70376  0.27938  Biso   1.000  O
  O211     1.0000 0.90310  0.76833  0.21481  Biso   1.000  O
  O212     1.0000 0.96346  0.55489  0.56480  Biso   1.000  O
  O213     1.0000 0.16307  0.70376  0.71367  Biso   1.000  O
  O214     1.0000 0.10168  0.76833  0.77824  Biso   1.000  O
  O215     1.0000 0.43190  0.04002  0.56480  Biso   1.000  O
  O216     1.0000 0.27821  0.81529  0.71367  Biso   1.000  O
  O217     1.0000 0.21154  0.87475  0.77824  Biso   1.000  O
  O218     1.0000 0.57288  0.93322  0.56480  Biso   1.000  O
  O219     1.0000 0.72657  0.15795  0.71367  Biso   1.000  O
  O220     1.0000 0.79323  0.09848  0.77824  Biso   1.000  O
  O221     1.0000 0.57288  0.04002  0.42825  Biso   1.000  O
  O222     1.0000 0.72657  0.81529  0.27938  Biso   1.000  O
  O223     1.0000 0.79323  0.87475  0.21481  Biso   1.000  O
  O224     1.0000 0.43190  0.93322  0.42825  Biso   1.000  O
  O225     1.0000 0.27821  0.15795  0.27938  Biso   1.000  O
  O226     1.0000 0.21154  0.09848  0.21481  Biso   1.000  O
  O227     1.0000 0.43190  0.41834  0.94312  Biso   1.000  O
  O228     1.0000 0.27821  0.26948  0.16786  Biso   1.000  O
  O229     1.0000 0.21154  0.20490  0.10839  Biso   1.000  O
  O230     1.0000 0.43190  0.55489  0.04993  Biso   1.000  O
  O231     1.0000 0.27821  0.70376  0.82519  Biso   1.000  O
  O232     1.0000 0.21154  0.76833  0.88466  Biso   1.000  O
  O233     1.0000 0.57288  0.55489  0.94313  Biso   1.000  O
  O234     1.0000 0.72657  0.70376  0.16786  Biso   1.000  O
  O235     1.0000 0.79323  0.76833  0.10839  Biso   1.000  O
  O236     1.0000 0.57288  0.41834  0.04993  Biso   1.000  O
  O237     1.0000 0.72657  0.26948  0.82519  Biso   1.000  O
