data_image0
_cell_length_a       18.3471
_cell_length_b       18.3471
_cell_length_c       18.3471
_cell_angle_alpha    60
_cell_angle_beta     60
_cell_angle_gamma    60

_symmetry_space_group_name_H-M    "P 1"
_symmetry_int_tables_number       1

loop_
  _symmetry_equiv_pos_as_xyz
  'x, y, z'

loop_
  _atom_site_label
  _atom_site_occupancy
  _atom_site_fract_x
  _atom_site_fract_y
  _atom_site_fract_z
  _atom_site_thermal_displace_type
  _atom_site_B_iso_or_equiv
  _atom_site_type_symbol
  C1       1.0000 0.00000  0.42920  0.57080  Biso   1.000  C
  C2       1.0000 0.42920  0.00000  0.00000  Biso   1.000  C
  C3       1.0000 0.57080  0.00000  0.00000  Biso   1.000  C
  C4       1.0000 0.00000  0.57080  0.42920  Biso   1.000  C
  C5       1.0000 0.00000  0.57080  0.00000  Biso   1.000  C
  C6       1.0000 0.42920  0.00000  0.57080  Biso   1.000  C
  C7       1.0000 0.57080  0.00000  0.42920  Biso   1.000  C
  C8       1.0000 0.00000  0.42920  0.00000  Biso   1.000  C
  C9       1.0000 0.00000  0.00000  0.42920  Biso   1.000  C
  C10      1.0000 0.42920  0.57080  0.00000  Biso   1.000  C
  C11      1.0000 0.57080  0.42920  0.00000  Biso   1.000  C
  C12      1.0000 0.00000  0.00000  0.57080  Biso   1.000  C
  C13      1.0000 0.96410  0.27250  0.49090  Biso   1.000  C
  C14      1.0000 0.27250  0.96410  0.27250  Biso   1.000  C
  C15      1.0000 0.49090  0.27250  0.96410  Biso   1.000  C
  C16      1.0000 0.27250  0.49090  0.27250  Biso   1.000  C
  C17      1.0000 0.96410  0.49090  0.27250  Biso   1.000  C
  C18      1.0000 0.27250  0.27250  0.49090  Biso   1.000  C
  C19      1.0000 0.49090  0.96410  0.27250  Biso   1.000  C
  C20      1.0000 0.27250  0.27250  0.96410  Biso   1.000  C
  C21      1.0000 0.96410  0.27250  0.27250  Biso   1.000  C
  C22      1.0000 0.27250  0.49090  0.96410  Biso   1.000  C
  C23      1.0000 0.49090  0.27250  0.27250  Biso   1.000  C
  C24      1.0000 0.27250  0.96410  0.49090  Biso   1.000  C
  C25      1.0000 0.72750  0.03590  0.50910  Biso   1.000  C
  C26      1.0000 0.03590  0.72750  0.72750  Biso   1.000  C
  C27      1.0000 0.72750  0.50910  0.03590  Biso   1.000  C
  C28      1.0000 0.50910  0.72750  0.72750  Biso   1.000  C
  C29      1.0000 0.50910  0.03590  0.72750  Biso   1.000  C
  C30      1.0000 0.72750  0.72750  0.50910  Biso   1.000  C
  C31      1.0000 0.03590  0.50910  0.72750  Biso   1.000  C
  C32      1.0000 0.72750  0.72750  0.03590  Biso   1.000  C
  C33      1.0000 0.72750  0.03590  0.72750  Biso   1.000  C
  C34      1.0000 0.50910  0.72750  0.03590  Biso   1.000  C
  C35      1.0000 0.72750  0.50910  0.72750  Biso   1.000  C
  C36      1.0000 0.03590  0.72750  0.50910  Biso   1.000  C
  C37      1.0000 0.96370  0.30250  0.43130  Biso   1.000  C
  C38      1.0000 0.30250  0.96370  0.30250  Biso   1.000  C
  C39      1.0000 0.43130  0.30250  0.96370  Biso   1.000  C
  C40      1.0000 0.30250  0.43130  0.30250  Biso   1.000  C
  C41      1.0000 0.96370  0.43130  0.30250  Biso   1.000  C
  C42      1.0000 0.30250  0.30250  0.43130  Biso   1.000  C
  C43      1.0000 0.43130  0.96370  0.30250  Biso   1.000  C
  C44      1.0000 0.30250  0.30250  0.96370  Biso   1.000  C
  C45      1.0000 0.96370  0.30250  0.30250  Biso   1.000  C
  C46      1.0000 0.30250  0.43130  0.96370  Biso   1.000  C
  C47      1.0000 0.43130  0.30250  0.30250  Biso   1.000  C
  C48      1.0000 0.30250  0.96370  0.43130  Biso   1.000  C
  C49      1.0000 0.69750  0.03630  0.56870  Biso   1.000  C
  C50      1.0000 0.03630  0.69750  0.69750  Biso   1.000  C
  C51      1.0000 0.69750  0.56870  0.03630  Biso   1.000  C
  C52      1.0000 0.56870  0.69750  0.69750  Biso   1.000  C
  C53      1.0000 0.56870  0.03630  0.69750  Biso   1.000  C
  C54      1.0000 0.69750  0.69750  0.56870  Biso   1.000  C
  C55      1.0000 0.03630  0.56870  0.69750  Biso   1.000  C
  C56      1.0000 0.69750  0.69750  0.03630  Biso   1.000  C
  C57      1.0000 0.69750  0.03630  0.69750  Biso   1.000  C
  C58      1.0000 0.56870  0.69750  0.03630  Biso   1.000  C
  C59      1.0000 0.69750  0.56870  0.69750  Biso   1.000  C
  C60      1.0000 0.03630  0.69750  0.56870  Biso   1.000  C
  C61      1.0000 0.96250  0.38910  0.38910  Biso   1.000  C
  C62      1.0000 0.97740  0.43060  0.43060  Biso   1.000  C
  C63      1.0000 0.38910  0.96250  0.25930  Biso   1.000  C
  C64      1.0000 0.43060  0.97740  0.16140  Biso   1.000  C
  C65      1.0000 0.38910  0.25930  0.96250  Biso   1.000  C
  C66      1.0000 0.43060  0.16140  0.97740  Biso   1.000  C
  C67      1.0000 0.25930  0.38910  0.38910  Biso   1.000  C
  C68      1.0000 0.16140  0.43060  0.43060  Biso   1.000  C
  C69      1.0000 0.96250  0.38910  0.25930  Biso   1.000  C
  C70      1.0000 0.97740  0.43060  0.16140  Biso   1.000  C
  C71      1.0000 0.38910  0.25930  0.38910  Biso   1.000  C
  C72      1.0000 0.43060  0.16140  0.43060  Biso   1.000  C
  C73      1.0000 0.38910  0.96250  0.38910  Biso   1.000  C
  C74      1.0000 0.43060  0.97740  0.43060  Biso   1.000  C
  C75      1.0000 0.25930  0.38910  0.96250  Biso   1.000  C
  C76      1.0000 0.16140  0.43060  0.97740  Biso   1.000  C
  C77      1.0000 0.96250  0.25930  0.38910  Biso   1.000  C
  C78      1.0000 0.97740  0.16140  0.43060  Biso   1.000  C
  C79      1.0000 0.38910  0.38910  0.96250  Biso   1.000  C
  C80      1.0000 0.43060  0.43060  0.97740  Biso   1.000  C
  C81      1.0000 0.38910  0.38910  0.25930  Biso   1.000  C
  C82      1.0000 0.43060  0.43060  0.16140  Biso   1.000  C
  C83      1.0000 0.25930  0.96250  0.38910  Biso   1.000  C
  C84      1.0000 0.16140  0.97740  0.43060  Biso   1.000  C
  C85      1.0000 0.61090  0.03750  0.61090  Biso   1.000  C
  C86      1.0000 0.56940  0.02260  0.56940  Biso   1.000  C
  C87      1.0000 0.03750  0.61090  0.74070  Biso   1.000  C
  C88      1.0000 0.02260  0.56940  0.83860  Biso   1.000  C
  C89      1.0000 0.74070  0.61090  0.03750  Biso   1.000  C
  C90      1.0000 0.83860  0.56940  0.02260  Biso   1.000  C
  C91      1.0000 0.61090  0.74070  0.61090  Biso   1.000  C
  C92      1.0000 0.56940  0.83860  0.56940  Biso   1.000  C
  C93      1.0000 0.61090  0.03750  0.74070  Biso   1.000  C
  C94      1.0000 0.56940  0.02260  0.83860  Biso   1.000  C
  C95      1.0000 0.74070  0.61090  0.61090  Biso   1.000  C
  C96      1.0000 0.83860  0.56940  0.56940  Biso   1.000  C
  C97      1.0000 0.03750  0.61090  0.61090  Biso   1.000  C
  C98      1.0000 0.02260  0.56940  0.56940  Biso   1.000  C
  C99      1.0000 0.61090  0.74070  0.03750  Biso   1.000  C
  C100     1.0000 0.56940  0.83860  0.02260  Biso   1.000  C
  C101     1.0000 0.74070  0.03750  0.61090  Biso   1.000  C
  C102     1.0000 0.83860  0.02260  0.56940  Biso   1.000  C
  C103     1.0000 0.61090  0.61090  0.03750  Biso   1.000  C
  C104     1.0000 0.56940  0.56940  0.02260  Biso   1.000  C
  C105     1.0000 0.61090  0.61090  0.74070  Biso   1.000  C
  C106     1.0000 0.56940  0.56940  0.83860  Biso   1.000  C
  C107     1.0000 0.03750  0.74070  0.61090  Biso   1.000  C
  C108     1.0000 0.02260  0.83860  0.56940  Biso   1.000  C
  C109     1.0000 0.97960  0.38720  0.50940  Biso   1.000  C
  C110     1.0000 0.38720  0.97960  0.12380  Biso   1.000  C
  C111     1.0000 0.50940  0.12380  0.97960  Biso   1.000  C
  C112     1.0000 0.12380  0.50940  0.38720  Biso   1.000  C
  C113     1.0000 0.97960  0.50940  0.12380  Biso   1.000  C
  C114     1.0000 0.38720  0.12380  0.50940  Biso   1.000  C
  C115     1.0000 0.50940  0.97960  0.38720  Biso   1.000  C
  C116     1.0000 0.12380  0.38720  0.97960  Biso   1.000  C
  C117     1.0000 0.97960  0.12380  0.38720  Biso   1.000  C
  C118     1.0000 0.38720  0.50940  0.97960  Biso   1.000  C
  C119     1.0000 0.50940  0.38720  0.12380  Biso   1.000  C
  C120     1.0000 0.12380  0.97960  0.50940  Biso   1.000  C
  C121     1.0000 0.61280  0.02040  0.49060  Biso   1.000  C
  C122     1.0000 0.02040  0.61280  0.87620  Biso   1.000  C
  C123     1.0000 0.87620  0.49060  0.02040  Biso   1.000  C
  C124     1.0000 0.49060  0.87620  0.61280  Biso   1.000  C
  C125     1.0000 0.49060  0.02040  0.87620  Biso   1.000  C
  C126     1.0000 0.87620  0.61280  0.49060  Biso   1.000  C
  C127     1.0000 0.02040  0.49060  0.61280  Biso   1.000  C
  C128     1.0000 0.61280  0.87620  0.02040  Biso   1.000  C
  C129     1.0000 0.87620  0.02040  0.61280  Biso   1.000  C
  C130     1.0000 0.49060  0.61280  0.02040  Biso   1.000  C
  C131     1.0000 0.61280  0.49060  0.87620  Biso   1.000  C
  C132     1.0000 0.02040  0.87620  0.49060  Biso   1.000  C
  C133     1.0000 0.02040  0.61280  0.49060  Biso   1.000  C
  C134     1.0000 0.61280  0.02040  0.87620  Biso   1.000  C
  C135     1.0000 0.49060  0.87620  0.02040  Biso   1.000  C
  C136     1.0000 0.87620  0.49060  0.61280  Biso   1.000  C
  C137     1.0000 0.02040  0.49060  0.87620  Biso   1.000  C
  C138     1.0000 0.61280  0.87620  0.49060  Biso   1.000  C
  C139     1.0000 0.49060  0.02040  0.61280  Biso   1.000  C
  C140     1.0000 0.87620  0.61280  0.02040  Biso   1.000  C
  C141     1.0000 0.02040  0.87620  0.61280  Biso   1.000  C
  C142     1.0000 0.61280  0.49060  0.02040  Biso   1.000  C
  C143     1.0000 0.49060  0.61280  0.87620  Biso   1.000  C
  C144     1.0000 0.87620  0.02040  0.49060  Biso   1.000  C
  C145     1.0000 0.38720  0.97960  0.50940  Biso   1.000  C
  C146     1.0000 0.97960  0.38720  0.12380  Biso   1.000  C
  C147     1.0000 0.12380  0.50940  0.97960  Biso   1.000  C
  C148     1.0000 0.50940  0.12380  0.38720  Biso   1.000  C
  C149     1.0000 0.50940  0.97960  0.12380  Biso   1.000  C
  C150     1.0000 0.12380  0.38720  0.50940  Biso   1.000  C
  C151     1.0000 0.97960  0.50940  0.38720  Biso   1.000  C
  C152     1.0000 0.38720  0.12380  0.97960  Biso   1.000  C
  C153     1.0000 0.12380  0.97960  0.38720  Biso   1.000  C
  C154     1.0000 0.50940  0.38720  0.97960  Biso   1.000  C
  C155     1.0000 0.38720  0.50940  0.12380  Biso   1.000  C
  C156     1.0000 0.97960  0.12380  0.50940  Biso   1.000  C
  O1       1.0000 0.53446  0.57723  0.53403  Biso   1.000  O
  O2       1.0000 0.53446  0.57723  0.35075  Biso   1.000  O
  O3       1.0000 0.53446  0.39394  0.53403  Biso   1.000  O
  O4       1.0000 0.35118  0.57723  0.53403  Biso   1.000  O
  O5       1.0000 0.94283  0.98559  0.11359  Biso   1.000  O
  O6       1.0000 0.94283  0.98559  0.94240  Biso   1.000  O
  O7       1.0000 0.11402  0.98559  0.94240  Biso   1.000  O
  O8       1.0000 0.94283  0.15679  0.94240  Biso   1.000  O
  O9       1.0000 0.78043  0.82320  0.29591  Biso   1.000  O
  O10      1.0000 0.78043  0.82320  0.08488  Biso   1.000  O
  O11      1.0000 0.29634  0.12808  0.78000  Biso   1.000  O
  O12      1.0000 0.08531  0.33910  0.78000  Biso   1.000  O
  O13      1.0000 0.78043  0.33910  0.08488  Biso   1.000  O
  O14      1.0000 0.78043  0.12808  0.29591  Biso   1.000  O
  O15      1.0000 0.29634  0.82320  0.78000  Biso   1.000  O
  O16      1.0000 0.08531  0.82320  0.78000  Biso   1.000  O
  O17      1.0000 0.78043  0.12808  0.78000  Biso   1.000  O
  O18      1.0000 0.78043  0.33910  0.78000  Biso   1.000  O
  O19      1.0000 0.29634  0.82320  0.08488  Biso   1.000  O
  O20      1.0000 0.08531  0.82320  0.29591  Biso   1.000  O
  O21      1.0000 0.71394  0.75671  0.31952  Biso   1.000  O
  O22      1.0000 0.76393  0.80670  0.26736  Biso   1.000  O
  O23      1.0000 0.71394  0.75671  0.19425  Biso   1.000  O
  O24      1.0000 0.76393  0.80670  0.14643  Biso   1.000  O
  O25      1.0000 0.31995  0.23744  0.71351  Biso   1.000  O
  O26      1.0000 0.26779  0.18963  0.76350  Biso   1.000  O
  O27      1.0000 0.19468  0.36271  0.71351  Biso   1.000  O
  O28      1.0000 0.14686  0.31055  0.76350  Biso   1.000  O
  O29      1.0000 0.71394  0.36271  0.19425  Biso   1.000  O
  O30      1.0000 0.76393  0.31055  0.14643  Biso   1.000  O
  O31      1.0000 0.71394  0.23744  0.31952  Biso   1.000  O
  O32      1.0000 0.76393  0.18963  0.26736  Biso   1.000  O
  O33      1.0000 0.31995  0.75671  0.71351  Biso   1.000  O
  O34      1.0000 0.26779  0.80670  0.76350  Biso   1.000  O
  O35      1.0000 0.19468  0.75671  0.71351  Biso   1.000  O
  O36      1.0000 0.14686  0.80670  0.76350  Biso   1.000  O
  O37      1.0000 0.71394  0.23744  0.71351  Biso   1.000  O
  O38      1.0000 0.76393  0.18963  0.76350  Biso   1.000  O
  O39      1.0000 0.71394  0.36271  0.71351  Biso   1.000  O
  O40      1.0000 0.76393  0.31055  0.76350  Biso   1.000  O
  O41      1.0000 0.31995  0.75671  0.19425  Biso   1.000  O
  O42      1.0000 0.26779  0.80670  0.14643  Biso   1.000  O
  O43      1.0000 0.19468  0.75671  0.31952  Biso   1.000  O
  O44      1.0000 0.14686  0.80670  0.26736  Biso   1.000  O
  O45      1.0000 0.62651  0.66927  0.34432  Biso   1.000  O
  O46      1.0000 0.68974  0.73250  0.28109  Biso   1.000  O
  O47      1.0000 0.84573  0.88850  0.12509  Biso   1.000  O
  O48      1.0000 0.79584  0.83861  0.17498  Biso   1.000  O
  O49      1.0000 0.34475  0.38751  0.62608  Biso   1.000  O
  O50      1.0000 0.28152  0.32428  0.68931  Biso   1.000  O
  O51      1.0000 0.12552  0.16829  0.84531  Biso   1.000  O
  O52      1.0000 0.17541  0.21818  0.79541  Biso   1.000  O
  O53      1.0000 0.62651  0.38751  0.34432  Biso   1.000  O
  O54      1.0000 0.68974  0.32428  0.28109  Biso   1.000  O
  O55      1.0000 0.84573  0.16829  0.12509  Biso   1.000  O
  O56      1.0000 0.79584  0.21818  0.17498  Biso   1.000  O
  O57      1.0000 0.34475  0.66927  0.62608  Biso   1.000  O
  O58      1.0000 0.28152  0.73250  0.68931  Biso   1.000  O
  O59      1.0000 0.12552  0.88850  0.84531  Biso   1.000  O
  O60      1.0000 0.17541  0.83861  0.79541  Biso   1.000  O
  O61      1.0000 0.62651  0.38751  0.62608  Biso   1.000  O
  O62      1.0000 0.68974  0.32428  0.68931  Biso   1.000  O
  O63      1.0000 0.84573  0.16829  0.84531  Biso   1.000  O
  O64      1.0000 0.79584  0.21818  0.79541  Biso   1.000  O
  O65      1.0000 0.34475  0.66927  0.34432  Biso   1.000  O
  O66      1.0000 0.28152  0.73250  0.28109  Biso   1.000  O
  O67      1.0000 0.12552  0.88850  0.12509  Biso   1.000  O
  O68      1.0000 0.17541  0.83861  0.17498  Biso   1.000  O
  O69      1.0000 0.98563  0.02839  0.98520  Biso   1.000  O
  O70      1.0000 0.49165  0.53442  0.49123  Biso   1.000  O
  O71      1.0000 0.60477  0.64754  0.42612  Biso   1.000  O
  O72      1.0000 0.87033  0.91310  0.16017  Biso   1.000  O
  O73      1.0000 0.60477  0.64754  0.30599  Biso   1.000  O
  O74      1.0000 0.87033  0.91310  0.04082  Biso   1.000  O
  O75      1.0000 0.42655  0.34918  0.60435  Biso   1.000  O
  O76      1.0000 0.16059  0.08401  0.86991  Biso   1.000  O
  O77      1.0000 0.30641  0.46931  0.60435  Biso   1.000  O
  O78      1.0000 0.04125  0.20336  0.86991  Biso   1.000  O
  O79      1.0000 0.60477  0.46931  0.30599  Biso   1.000  O
  O80      1.0000 0.87033  0.20336  0.04082  Biso   1.000  O
  O81      1.0000 0.60477  0.34918  0.42612  Biso   1.000  O
  O82      1.0000 0.87033  0.08401  0.16017  Biso   1.000  O
  O83      1.0000 0.42655  0.64754  0.60435  Biso   1.000  O
  O84      1.0000 0.16059  0.91310  0.86991  Biso   1.000  O
  O85      1.0000 0.30641  0.64754  0.60435  Biso   1.000  O
  O86      1.0000 0.04125  0.91310  0.86991  Biso   1.000  O
  O87      1.0000 0.60477  0.34918  0.60435  Biso   1.000  O
  O88      1.0000 0.87033  0.08401  0.86991  Biso   1.000  O
  O89      1.0000 0.60477  0.46931  0.60435  Biso   1.000  O
  O90      1.0000 0.87033  0.20336  0.86991  Biso   1.000  O
  O91      1.0000 0.42655  0.64754  0.30599  Biso   1.000  O
  O92      1.0000 0.16059  0.91310  0.04082  Biso   1.000  O
  O93      1.0000 0.30641  0.64754  0.42612  Biso   1.000  O
