data_image0
_cell_length_a       22.9539
_cell_length_b       22.9539
_cell_length_c       22.9539
_cell_angle_alpha    60
_cell_angle_beta     60
_cell_angle_gamma    60

_symmetry_space_group_name_H-M    "P 1"
_symmetry_int_tables_number       1

loop_
  _symmetry_equiv_pos_as_xyz
  'x, y, z'

loop_
  _atom_site_label
  _atom_site_occupancy
  _atom_site_fract_x
  _atom_site_fract_y
  _atom_site_fract_z
  _atom_site_thermal_displace_type
  _atom_site_B_iso_or_equiv
  _atom_site_type_symbol
  Ni1      1.0000 0.87280  0.04240  0.04240  Biso   1.000  Ni
  Ni2      1.0000 0.04240  0.87280  0.04240  Biso   1.000  Ni
  Ni3      1.0000 0.04240  0.04240  0.87280  Biso   1.000  Ni
  Ni4      1.0000 0.04240  0.04240  0.04240  Biso   1.000  Ni
  Ni5      1.0000 0.95760  0.12720  0.95760  Biso   1.000  Ni
  Ni6      1.0000 0.12720  0.95760  0.95760  Biso   1.000  Ni
  Ni7      1.0000 0.95760  0.95760  0.12720  Biso   1.000  Ni
  Ni8      1.0000 0.95760  0.95760  0.95760  Biso   1.000  Ni
  H1       1.0000 0.90658  0.09342  0.09342  Biso   1.000  H
  H2       1.0000 0.09342  0.90658  0.90658  Biso   1.000  H
  H3       1.0000 0.90658  0.09342  0.90658  Biso   1.000  H
  H4       1.0000 0.09342  0.90658  0.09342  Biso   1.000  H
  H5       1.0000 0.90658  0.90658  0.09342  Biso   1.000  H
  H6       1.0000 0.09342  0.09342  0.90658  Biso   1.000  H
  H7       1.0000 0.51145  0.61341  0.93757  Biso   1.000  H
  H8       1.0000 0.29441  0.82905  0.93827  Biso   1.000  H
  H9       1.0000 0.61341  0.51145  0.93757  Biso   1.000  H
  H10      1.0000 0.82905  0.29441  0.93827  Biso   1.000  H
  H11      1.0000 0.93757  0.93757  0.51145  Biso   1.000  H
  H12      1.0000 0.93827  0.93827  0.29441  Biso   1.000  H
  H13      1.0000 0.93757  0.93757  0.61341  Biso   1.000  H
  H14      1.0000 0.93827  0.93827  0.82905  Biso   1.000  H
  H15      1.0000 0.51145  0.93757  0.93757  Biso   1.000  H
  H16      1.0000 0.29441  0.93827  0.93827  Biso   1.000  H
  H17      1.0000 0.61341  0.93757  0.93757  Biso   1.000  H
  H18      1.0000 0.82905  0.93827  0.93827  Biso   1.000  H
  H19      1.0000 0.93757  0.51145  0.61341  Biso   1.000  H
  H20      1.0000 0.93827  0.29441  0.82905  Biso   1.000  H
  H21      1.0000 0.93757  0.61341  0.51145  Biso   1.000  H
  H22      1.0000 0.93827  0.82905  0.29441  Biso   1.000  H
  H23      1.0000 0.51145  0.93757  0.61341  Biso   1.000  H
  H24      1.0000 0.29441  0.93827  0.82905  Biso   1.000  H
  H25      1.0000 0.61341  0.93757  0.51145  Biso   1.000  H
  H26      1.0000 0.82905  0.93827  0.29441  Biso   1.000  H
  H27      1.0000 0.93757  0.61341  0.93757  Biso   1.000  H
  H28      1.0000 0.93827  0.82905  0.93827  Biso   1.000  H
  H29      1.0000 0.93757  0.51145  0.93757  Biso   1.000  H
  H30      1.0000 0.93827  0.29441  0.93827  Biso   1.000  H
  H31      1.0000 0.38659  0.48855  0.06243  Biso   1.000  H
  H32      1.0000 0.17095  0.70559  0.06173  Biso   1.000  H
  H33      1.0000 0.48855  0.38659  0.06243  Biso   1.000  H
  H34      1.0000 0.70559  0.17095  0.06173  Biso   1.000  H
  H35      1.0000 0.06243  0.06243  0.48855  Biso   1.000  H
  H36      1.0000 0.06173  0.06173  0.70559  Biso   1.000  H
  H37      1.0000 0.06243  0.06243  0.38659  Biso   1.000  H
  H38      1.0000 0.06173  0.06173  0.17095  Biso   1.000  H
  H39      1.0000 0.06243  0.48855  0.06243  Biso   1.000  H
  H40      1.0000 0.06173  0.70559  0.06173  Biso   1.000  H
  H41      1.0000 0.06243  0.38659  0.06243  Biso   1.000  H
  H42      1.0000 0.06173  0.17095  0.06173  Biso   1.000  H
  H43      1.0000 0.48855  0.06243  0.38659  Biso   1.000  H
  H44      1.0000 0.70559  0.06173  0.17095  Biso   1.000  H
  H45      1.0000 0.38659  0.06243  0.48855  Biso   1.000  H
  H46      1.0000 0.17095  0.06173  0.70559  Biso   1.000  H
  H47      1.0000 0.06243  0.48855  0.38659  Biso   1.000  H
  H48      1.0000 0.06173  0.70559  0.17095  Biso   1.000  H
  H49      1.0000 0.06243  0.38659  0.48855  Biso   1.000  H
  H50      1.0000 0.06173  0.17095  0.70559  Biso   1.000  H
  H51      1.0000 0.38659  0.06243  0.06243  Biso   1.000  H
  H52      1.0000 0.17095  0.06173  0.06173  Biso   1.000  H
  H53      1.0000 0.48855  0.06243  0.06243  Biso   1.000  H
  H54      1.0000 0.70559  0.06173  0.06173  Biso   1.000  H
  C1       1.0000 0.43944  0.56056  0.00000  Biso   1.000  C
  C2       1.0000 0.37410  0.62590  0.00000  Biso   1.000  C
  C3       1.0000 0.32008  0.67992  0.00000  Biso   1.000  C
  C4       1.0000 0.25472  0.74528  0.00000  Biso   1.000  C
  C5       1.0000 0.56056  0.43944  0.00000  Biso   1.000  C
  C6       1.0000 0.62590  0.37410  0.00000  Biso   1.000  C
  C7       1.0000 0.67992  0.32008  0.00000  Biso   1.000  C
  C8       1.0000 0.74528  0.25472  0.00000  Biso   1.000  C
  C9       1.0000 0.00000  0.00000  0.43944  Biso   1.000  C
  C10      1.0000 0.00000  0.00000  0.37410  Biso   1.000  C
  C11      1.0000 0.00000  0.00000  0.32008  Biso   1.000  C
  C12      1.0000 0.00000  0.00000  0.25472  Biso   1.000  C
  C13      1.0000 0.00000  0.00000  0.56056  Biso   1.000  C
  C14      1.0000 0.00000  0.00000  0.62590  Biso   1.000  C
  C15      1.0000 0.00000  0.00000  0.67992  Biso   1.000  C
  C16      1.0000 0.00000  0.00000  0.74528  Biso   1.000  C
  C17      1.0000 0.43944  0.00000  0.00000  Biso   1.000  C
  C18      1.0000 0.37410  0.00000  0.00000  Biso   1.000  C
  C19      1.0000 0.32008  0.00000  0.00000  Biso   1.000  C
  C20      1.0000 0.25472  0.00000  0.00000  Biso   1.000  C
  C21      1.0000 0.56056  0.00000  0.00000  Biso   1.000  C
  C22      1.0000 0.62590  0.00000  0.00000  Biso   1.000  C
  C23      1.0000 0.67992  0.00000  0.00000  Biso   1.000  C
  C24      1.0000 0.74528  0.00000  0.00000  Biso   1.000  C
  C25      1.0000 0.00000  0.43944  0.56056  Biso   1.000  C
  C26      1.0000 0.00000  0.37410  0.62590  Biso   1.000  C
  C27      1.0000 0.00000  0.32008  0.67992  Biso   1.000  C
  C28      1.0000 0.00000  0.25472  0.74528  Biso   1.000  C
  C29      1.0000 0.00000  0.56056  0.43944  Biso   1.000  C
  C30      1.0000 0.00000  0.62590  0.37410  Biso   1.000  C
  C31      1.0000 0.00000  0.67992  0.32008  Biso   1.000  C
  C32      1.0000 0.00000  0.74528  0.25472  Biso   1.000  C
  C33      1.0000 0.43944  0.00000  0.56056  Biso   1.000  C
  C34      1.0000 0.37410  0.00000  0.62590  Biso   1.000  C
  C35      1.0000 0.32008  0.00000  0.67992  Biso   1.000  C
  C36      1.0000 0.25472  0.00000  0.74528  Biso   1.000  C
  C37      1.0000 0.56056  0.00000  0.43944  Biso   1.000  C
  C38      1.0000 0.62590  0.00000  0.37410  Biso   1.000  C
  C39      1.0000 0.67992  0.00000  0.32008  Biso   1.000  C
  C40      1.0000 0.74528  0.00000  0.25472  Biso   1.000  C
  C41      1.0000 0.00000  0.56056  0.00000  Biso   1.000  C
  C42      1.0000 0.00000  0.62590  0.00000  Biso   1.000  C
  C43      1.0000 0.00000  0.67992  0.00000  Biso   1.000  C
  C44      1.0000 0.00000  0.74528  0.00000  Biso   1.000  C
  C45      1.0000 0.00000  0.43944  0.00000  Biso   1.000  C
  C46      1.0000 0.00000  0.37410  0.00000  Biso   1.000  C
  C47      1.0000 0.00000  0.32008  0.00000  Biso   1.000  C
  C48      1.0000 0.00000  0.25472  0.00000  Biso   1.000  C
  C49      1.0000 0.50680  0.56736  0.96292  Biso   1.000  C
  C50      1.0000 0.25379  0.81399  0.96611  Biso   1.000  C
  C51      1.0000 0.56736  0.50680  0.96292  Biso   1.000  C
  C52      1.0000 0.81399  0.25379  0.96611  Biso   1.000  C
  C53      1.0000 0.96292  0.96292  0.50680  Biso   1.000  C
  C54      1.0000 0.96611  0.96611  0.25379  Biso   1.000  C
  C55      1.0000 0.96292  0.96292  0.56736  Biso   1.000  C
  C56      1.0000 0.96611  0.96611  0.81399  Biso   1.000  C
  C57      1.0000 0.50680  0.96292  0.96292  Biso   1.000  C
  C58      1.0000 0.25379  0.96611  0.96611  Biso   1.000  C
  C59      1.0000 0.56736  0.96292  0.96292  Biso   1.000  C
  C60      1.0000 0.81399  0.96611  0.96611  Biso   1.000  C
  C61      1.0000 0.96292  0.50680  0.56736  Biso   1.000  C
  C62      1.0000 0.96611  0.25379  0.81399  Biso   1.000  C
  C63      1.0000 0.96292  0.56736  0.50680  Biso   1.000  C
  C64      1.0000 0.96611  0.81399  0.25379  Biso   1.000  C
  C65      1.0000 0.50680  0.96292  0.56736  Biso   1.000  C
  C66      1.0000 0.25379  0.96611  0.81399  Biso   1.000  C
  C67      1.0000 0.56736  0.96292  0.50680  Biso   1.000  C
  C68      1.0000 0.81399  0.96611  0.25379  Biso   1.000  C
  C69      1.0000 0.96292  0.56736  0.96292  Biso   1.000  C
  C70      1.0000 0.96611  0.81399  0.96611  Biso   1.000  C
  C71      1.0000 0.96292  0.50680  0.96292  Biso   1.000  C
  C72      1.0000 0.96611  0.25379  0.96611  Biso   1.000  C
  C73      1.0000 0.43264  0.49320  0.03708  Biso   1.000  C
  C74      1.0000 0.18601  0.74621  0.03389  Biso   1.000  C
  C75      1.0000 0.49320  0.43264  0.03708  Biso   1.000  C
  C76      1.0000 0.74621  0.18601  0.03389  Biso   1.000  C
  C77      1.0000 0.03708  0.03708  0.49320  Biso   1.000  C
  C78      1.0000 0.03389  0.03389  0.74621  Biso   1.000  C
  C79      1.0000 0.03708  0.03708  0.43264  Biso   1.000  C
  C80      1.0000 0.03389  0.03389  0.18601  Biso   1.000  C
  C81      1.0000 0.03708  0.49320  0.03708  Biso   1.000  C
  C82      1.0000 0.03389  0.74621  0.03389  Biso   1.000  C
  C83      1.0000 0.03708  0.43264  0.03708  Biso   1.000  C
  C84      1.0000 0.03389  0.18601  0.03389  Biso   1.000  C
  C85      1.0000 0.49320  0.03708  0.43264  Biso   1.000  C
  C86      1.0000 0.74621  0.03389  0.18601  Biso   1.000  C
  C87      1.0000 0.43264  0.03708  0.49320  Biso   1.000  C
  C88      1.0000 0.18601  0.03389  0.74621  Biso   1.000  C
  C89      1.0000 0.03708  0.49320  0.43264  Biso   1.000  C
  C90      1.0000 0.03389  0.74621  0.18601  Biso   1.000  C
  C91      1.0000 0.03708  0.43264  0.49320  Biso   1.000  C
  C92      1.0000 0.03389  0.18601  0.74621  Biso   1.000  C
  C93      1.0000 0.43264  0.03708  0.03708  Biso   1.000  C
  C94      1.0000 0.18601  0.03389  0.03389  Biso   1.000  C
  C95      1.0000 0.49320  0.03708  0.03708  Biso   1.000  C
  C96      1.0000 0.74621  0.03389  0.03389  Biso   1.000  C
  N1       1.0000 0.18451  0.85739  0.97905  Biso   1.000  N
  N2       1.0000 0.85739  0.18451  0.97905  Biso   1.000  N
  N3       1.0000 0.97905  0.97905  0.18451  Biso   1.000  N
  N4       1.0000 0.97905  0.97905  0.85739  Biso   1.000  N
  N5       1.0000 0.18451  0.97905  0.97905  Biso   1.000  N
  N6       1.0000 0.85739  0.97905  0.97905  Biso   1.000  N
  N7       1.0000 0.97905  0.18451  0.85739  Biso   1.000  N
  N8       1.0000 0.97905  0.85739  0.18451  Biso   1.000  N
  N9       1.0000 0.18451  0.97905  0.85739  Biso   1.000  N
  N10      1.0000 0.85739  0.97905  0.18451  Biso   1.000  N
  N11      1.0000 0.97905  0.85739  0.97905  Biso   1.000  N
  N12      1.0000 0.97905  0.18451  0.97905  Biso   1.000  N
  N13      1.0000 0.14261  0.81549  0.02095  Biso   1.000  N
  N14      1.0000 0.81549  0.14261  0.02095  Biso   1.000  N
  N15      1.0000 0.02095  0.02095  0.81549  Biso   1.000  N
  N16      1.0000 0.02095  0.02095  0.14261  Biso   1.000  N
  N17      1.0000 0.02095  0.81549  0.02095  Biso   1.000  N
  N18      1.0000 0.02095  0.14261  0.02095  Biso   1.000  N
  N19      1.0000 0.81549  0.02095  0.14261  Biso   1.000  N
  N20      1.0000 0.14261  0.02095  0.81549  Biso   1.000  N
  N21      1.0000 0.02095  0.81549  0.14261  Biso   1.000  N
  N22      1.0000 0.02095  0.14261  0.81549  Biso   1.000  N
  N23      1.0000 0.14261  0.02095  0.02095  Biso   1.000  N
  N24      1.0000 0.81549  0.02095  0.02095  Biso   1.000  N
  O1       1.0000 0.93584  0.06416  0.06416  Biso   1.000  O
  O2       1.0000 0.06416  0.93584  0.93584  Biso   1.000  O
  O3       1.0000 0.93584  0.06416  0.93584  Biso   1.000  O
  O4       1.0000 0.06416  0.93584  0.06416  Biso   1.000  O
  O5       1.0000 0.93584  0.93584  0.06416  Biso   1.000  O
  O6       1.0000 0.06416  0.06416  0.93584  Biso   1.000  O
  Ni9      1.0000 0.64268  0.78963  0.80035  Biso   1.000  Ni
  Ni10     1.0000 0.81228  0.62003  0.80035  Biso   1.000  Ni
  Ni11     1.0000 0.81228  0.78963  0.63075  Biso   1.000  Ni
  Ni12     1.0000 0.81228  0.78963  0.80035  Biso   1.000  Ni
  Ni13     1.0000 0.72748  0.87443  0.71555  Biso   1.000  Ni
  Ni14     1.0000 0.89708  0.70483  0.71555  Biso   1.000  Ni
  Ni15     1.0000 0.72748  0.70483  0.88515  Biso   1.000  Ni
  Ni16     1.0000 0.72748  0.70483  0.71555  Biso   1.000  Ni
  H55      1.0000 0.67646  0.84065  0.85137  Biso   1.000  H
  H56      1.0000 0.86330  0.65381  0.66453  Biso   1.000  H
  H57      1.0000 0.67646  0.84065  0.66453  Biso   1.000  H
  H58      1.0000 0.86330  0.65381  0.85137  Biso   1.000  H
  H59      1.0000 0.67646  0.65381  0.85137  Biso   1.000  H
  H60      1.0000 0.86330  0.84065  0.66453  Biso   1.000  H
  H61      1.0000 0.28133  0.36064  0.69552  Biso   1.000  H
  H62      1.0000 0.06429  0.57628  0.69622  Biso   1.000  H
  H63      1.0000 0.38329  0.25868  0.69552  Biso   1.000  H
  H64      1.0000 0.59893  0.04164  0.69622  Biso   1.000  H
  H65      1.0000 0.70745  0.68480  0.26940  Biso   1.000  H
  H66      1.0000 0.70815  0.68550  0.05236  Biso   1.000  H
  H67      1.0000 0.70745  0.68480  0.37136  Biso   1.000  H
  H68      1.0000 0.70815  0.68550  0.58700  Biso   1.000  H
  H69      1.0000 0.28133  0.68480  0.69552  Biso   1.000  H
  H70      1.0000 0.06429  0.68550  0.69622  Biso   1.000  H
  H71      1.0000 0.38329  0.68480  0.69552  Biso   1.000  H
  H72      1.0000 0.59893  0.68550  0.69622  Biso   1.000  H
  H73      1.0000 0.70745  0.25868  0.37136  Biso   1.000  H
  H74      1.0000 0.70815  0.04164  0.58700  Biso   1.000  H
  H75      1.0000 0.70745  0.36064  0.26940  Biso   1.000  H
  H76      1.0000 0.70815  0.57628  0.05236  Biso   1.000  H
  H77      1.0000 0.28133  0.68480  0.37136  Biso   1.000  H
  H78      1.0000 0.06429  0.68550  0.58700  Biso   1.000  H
  H79      1.0000 0.38329  0.68480  0.26940  Biso   1.000  H
  H80      1.0000 0.59893  0.68550  0.05236  Biso   1.000  H
  H81      1.0000 0.70745  0.36064  0.69552  Biso   1.000  H
  H82      1.0000 0.70815  0.57628  0.69622  Biso   1.000  H
  H83      1.0000 0.70745  0.25868  0.69552  Biso   1.000  H
  H84      1.0000 0.70815  0.04164  0.69622  Biso   1.000  H
  H85      1.0000 0.15647  0.23578  0.82038  Biso   1.000  H
  H86      1.0000 0.94083  0.45282  0.81968  Biso   1.000  H
  H87      1.0000 0.25843  0.13382  0.82038  Biso   1.000  H
  H88      1.0000 0.47547  0.91818  0.81968  Biso   1.000  H
  H89      1.0000 0.83231  0.80966  0.24650  Biso   1.000  H
  H90      1.0000 0.83161  0.80896  0.46354  Biso   1.000  H
  H91      1.0000 0.83231  0.80966  0.14454  Biso   1.000  H
  H92      1.0000 0.83161  0.80896  0.92890  Biso   1.000  H
  H93      1.0000 0.83231  0.23578  0.82038  Biso   1.000  H
  H94      1.0000 0.83161  0.45282  0.81968  Biso   1.000  H
  H95      1.0000 0.83231  0.13382  0.82038  Biso   1.000  H
  H96      1.0000 0.83161  0.91818  0.81968  Biso   1.000  H
  H97      1.0000 0.25843  0.80966  0.14454  Biso   1.000  H
  H98      1.0000 0.47547  0.80896  0.92890  Biso   1.000  H
  H99      1.0000 0.15647  0.80966  0.24650  Biso   1.000  H
  H100     1.0000 0.94083  0.80896  0.46354  Biso   1.000  H
  H101     1.0000 0.83231  0.23578  0.14454  Biso   1.000  H
  H102     1.0000 0.83161  0.45282  0.92890  Biso   1.000  H
  H103     1.0000 0.83231  0.13382  0.24650  Biso   1.000  H
  H104     1.0000 0.83161  0.91818  0.46354  Biso   1.000  H
  H105     1.0000 0.15647  0.80966  0.82038  Biso   1.000  H
  H106     1.0000 0.94083  0.80896  0.81968  Biso   1.000  H
  H107     1.0000 0.25843  0.80966  0.82038  Biso   1.000  H
  H108     1.0000 0.47547  0.80896  0.81968  Biso   1.000  H
  C97      1.0000 0.20932  0.30779  0.75795  Biso   1.000  C
  C98      1.0000 0.14398  0.37313  0.75795  Biso   1.000  C
  C99      1.0000 0.08996  0.42715  0.75795  Biso   1.000  C
  C100     1.0000 0.02460  0.49251  0.75795  Biso   1.000  C
  C101     1.0000 0.33044  0.18667  0.75795  Biso   1.000  C
  C102     1.0000 0.39578  0.12133  0.75795  Biso   1.000  C
  C103     1.0000 0.44980  0.06731  0.75795  Biso   1.000  C
  C104     1.0000 0.51516  0.00195  0.75795  Biso   1.000  C
  C105     1.0000 0.76988  0.74723  0.19739  Biso   1.000  C
  C106     1.0000 0.76988  0.74723  0.13205  Biso   1.000  C
  C107     1.0000 0.76988  0.74723  0.07803  Biso   1.000  C
  C108     1.0000 0.76988  0.74723  0.01267  Biso   1.000  C
  C109     1.0000 0.76988  0.74723  0.31851  Biso   1.000  C
  C110     1.0000 0.76988  0.74723  0.38385  Biso   1.000  C
  C111     1.0000 0.76988  0.74723  0.43787  Biso   1.000  C
  C112     1.0000 0.76988  0.74723  0.50323  Biso   1.000  C
  C113     1.0000 0.20932  0.74723  0.75795  Biso   1.000  C
  C114     1.0000 0.14398  0.74723  0.75795  Biso   1.000  C
  C115     1.0000 0.08996  0.74723  0.75795  Biso   1.000  C
  C116     1.0000 0.02460  0.74723  0.75795  Biso   1.000  C
  C117     1.0000 0.33044  0.74723  0.75795  Biso   1.000  C
  C118     1.0000 0.39578  0.74723  0.75795  Biso   1.000  C
  C119     1.0000 0.44980  0.74723  0.75795  Biso   1.000  C
  C120     1.0000 0.51516  0.74723  0.75795  Biso   1.000  C
  C121     1.0000 0.76988  0.18667  0.31851  Biso   1.000  C
  C122     1.0000 0.76988  0.12133  0.38385  Biso   1.000  C
  C123     1.0000 0.76988  0.06731  0.43787  Biso   1.000  C
  C124     1.0000 0.76988  0.00195  0.50323  Biso   1.000  C
  C125     1.0000 0.76988  0.30779  0.19739  Biso   1.000  C
  C126     1.0000 0.76988  0.37313  0.13205  Biso   1.000  C
  C127     1.0000 0.76988  0.42715  0.07803  Biso   1.000  C
  C128     1.0000 0.76988  0.49251  0.01267  Biso   1.000  C
  C129     1.0000 0.20932  0.74723  0.31851  Biso   1.000  C
  C130     1.0000 0.14398  0.74723  0.38385  Biso   1.000  C
  C131     1.0000 0.08996  0.74723  0.43787  Biso   1.000  C
  C132     1.0000 0.02460  0.74723  0.50323  Biso   1.000  C
  C133     1.0000 0.33044  0.74723  0.19739  Biso   1.000  C
  C134     1.0000 0.39578  0.74723  0.13205  Biso   1.000  C
  C135     1.0000 0.44980  0.74723  0.07803  Biso   1.000  C
  C136     1.0000 0.51516  0.74723  0.01267  Biso   1.000  C
  C137     1.0000 0.76988  0.30779  0.75795  Biso   1.000  C
  C138     1.0000 0.76988  0.37313  0.75795  Biso   1.000  C
  C139     1.0000 0.76988  0.42715  0.75795  Biso   1.000  C
  C140     1.0000 0.76988  0.49251  0.75795  Biso   1.000  C
  C141     1.0000 0.76988  0.18667  0.75795  Biso   1.000  C
  C142     1.0000 0.76988  0.12133  0.75795  Biso   1.000  C
  C143     1.0000 0.76988  0.06731  0.75795  Biso   1.000  C
  C144     1.0000 0.76988  0.00195  0.75795  Biso   1.000  C
  C145     1.0000 0.27668  0.31459  0.72087  Biso   1.000  C
  C146     1.0000 0.02367  0.56122  0.72406  Biso   1.000  C
  C147     1.0000 0.33724  0.25403  0.72087  Biso   1.000  C
  C148     1.0000 0.58387  0.00102  0.72406  Biso   1.000  C
  C149     1.0000 0.73280  0.71015  0.26475  Biso   1.000  C
  C150     1.0000 0.73599  0.71334  0.01174  Biso   1.000  C
  C151     1.0000 0.73280  0.71015  0.32531  Biso   1.000  C
  C152     1.0000 0.73599  0.71334  0.57194  Biso   1.000  C
  C153     1.0000 0.27668  0.71015  0.72087  Biso   1.000  C
  C154     1.0000 0.02367  0.71334  0.72406  Biso   1.000  C
  C155     1.0000 0.33724  0.71015  0.72087  Biso   1.000  C
  C156     1.0000 0.58387  0.71334  0.72406  Biso   1.000  C
  C157     1.0000 0.73280  0.25403  0.32531  Biso   1.000  C
  C158     1.0000 0.73599  0.00102  0.57194  Biso   1.000  C
  C159     1.0000 0.73280  0.31459  0.26475  Biso   1.000  C
  C160     1.0000 0.73599  0.56122  0.01174  Biso   1.000  C
  C161     1.0000 0.27668  0.71015  0.32531  Biso   1.000  C
  C162     1.0000 0.02367  0.71334  0.57194  Biso   1.000  C
  C163     1.0000 0.33724  0.71015  0.26475  Biso   1.000  C
  C164     1.0000 0.58387  0.71334  0.01174  Biso   1.000  C
  C165     1.0000 0.73280  0.31459  0.72087  Biso   1.000  C
  C166     1.0000 0.73599  0.56122  0.72406  Biso   1.000  C
  C167     1.0000 0.73280  0.25403  0.72087  Biso   1.000  C
  C168     1.0000 0.73599  0.00102  0.72406  Biso   1.000  C
  C169     1.0000 0.20252  0.24043  0.79503  Biso   1.000  C
  C170     1.0000 0.95589  0.49344  0.79184  Biso   1.000  C
  C171     1.0000 0.26308  0.17987  0.79503  Biso   1.000  C
  C172     1.0000 0.51609  0.93324  0.79184  Biso   1.000  C
  C173     1.0000 0.80696  0.78431  0.25115  Biso   1.000  C
  C174     1.0000 0.80377  0.78112  0.50416  Biso   1.000  C
  C175     1.0000 0.80696  0.78431  0.19059  Biso   1.000  C
  C176     1.0000 0.80377  0.78112  0.94396  Biso   1.000  C
  C177     1.0000 0.80696  0.24043  0.79503  Biso   1.000  C
  C178     1.0000 0.80377  0.49344  0.79184  Biso   1.000  C
  C179     1.0000 0.80696  0.17987  0.79503  Biso   1.000  C
  C180     1.0000 0.80377  0.93324  0.79184  Biso   1.000  C
  C181     1.0000 0.26308  0.78431  0.19059  Biso   1.000  C
  C182     1.0000 0.51609  0.78112  0.94396  Biso   1.000  C
  C183     1.0000 0.20252  0.78431  0.25115  Biso   1.000  C
  C184     1.0000 0.95589  0.78112  0.50416  Biso   1.000  C
  C185     1.0000 0.80696  0.24043  0.19059  Biso   1.000  C
  C186     1.0000 0.80377  0.49344  0.94396  Biso   1.000  C
  C187     1.0000 0.80696  0.17987  0.25115  Biso   1.000  C
  C188     1.0000 0.80377  0.93324  0.50416  Biso   1.000  C
  C189     1.0000 0.20252  0.78431  0.79503  Biso   1.000  C
  C190     1.0000 0.95589  0.78112  0.79184  Biso   1.000  C
  C191     1.0000 0.26308  0.78431  0.79503  Biso   1.000  C
  C192     1.0000 0.51609  0.78112  0.79184  Biso   1.000  C
  N25      1.0000 0.95439  0.60462  0.73700  Biso   1.000  N
  N26      1.0000 0.62727  0.93174  0.73700  Biso   1.000  N
  N27      1.0000 0.74893  0.72628  0.94246  Biso   1.000  N
  N28      1.0000 0.74893  0.72628  0.61534  Biso   1.000  N
  N29      1.0000 0.95439  0.72628  0.73700  Biso   1.000  N
  N30      1.0000 0.62727  0.72628  0.73700  Biso   1.000  N
  N31      1.0000 0.74893  0.93174  0.61534  Biso   1.000  N
  N32      1.0000 0.74893  0.60462  0.94246  Biso   1.000  N
  N33      1.0000 0.95439  0.72628  0.61534  Biso   1.000  N
  N34      1.0000 0.62727  0.72628  0.94246  Biso   1.000  N
  N35      1.0000 0.74893  0.60462  0.73700  Biso   1.000  N
  N36      1.0000 0.74893  0.93174  0.73700  Biso   1.000  N
  N37      1.0000 0.91249  0.56272  0.77890  Biso   1.000  N
  N38      1.0000 0.58537  0.88984  0.77890  Biso   1.000  N
  N39      1.0000 0.79083  0.76818  0.57344  Biso   1.000  N
  N40      1.0000 0.79083  0.76818  0.90056  Biso   1.000  N
  N41      1.0000 0.79083  0.56272  0.77890  Biso   1.000  N
  N42      1.0000 0.79083  0.88984  0.77890  Biso   1.000  N
  N43      1.0000 0.58537  0.76818  0.90056  Biso   1.000  N
  N44      1.0000 0.91249  0.76818  0.57344  Biso   1.000  N
  N45      1.0000 0.79083  0.56272  0.90056  Biso   1.000  N
  N46      1.0000 0.79083  0.88984  0.57344  Biso   1.000  N
  N47      1.0000 0.91249  0.76818  0.77890  Biso   1.000  N
  N48      1.0000 0.58537  0.76818  0.77890  Biso   1.000  N
  O7       1.0000 0.70572  0.81139  0.82211  Biso   1.000  O
  O8       1.0000 0.83404  0.68307  0.69379  Biso   1.000  O
  O9       1.0000 0.70572  0.81139  0.69379  Biso   1.000  O
  O10      1.0000 0.83404  0.68307  0.82211  Biso   1.000  O
  O11      1.0000 0.70572  0.68307  0.82211  Biso   1.000  O
