data_image0
_cell_length_a       14.2089
_cell_length_b       14.2089
_cell_length_c       14.2089
_cell_angle_alpha    60
_cell_angle_beta     60
_cell_angle_gamma    60

_symmetry_space_group_name_H-M    "P 1"
_symmetry_int_tables_number       1

loop_
  _symmetry_equiv_pos_as_xyz
  'x, y, z'

loop_
  _atom_site_label
  _atom_site_occupancy
  _atom_site_fract_x
  _atom_site_fract_y
  _atom_site_fract_z
  _atom_site_thermal_displace_type
  _atom_site_B_iso_or_equiv
  _atom_site_type_symbol
  C1       1.0000 0.19397  0.19397  0.41809  Biso   1.000  C
  C2       1.0000 0.19397  0.41809  0.19397  Biso   1.000  C
  C3       1.0000 0.41809  0.19397  0.19397  Biso   1.000  C
  C4       1.0000 0.80633  0.80633  0.80633  Biso   1.000  C
  C5       1.0000 0.80633  0.58101  0.80633  Biso   1.000  C
  C6       1.0000 0.80633  0.80633  0.58101  Biso   1.000  C
  C7       1.0000 0.19397  0.19397  0.19397  Biso   1.000  C
  C8       1.0000 0.58101  0.80633  0.80633  Biso   1.000  C
  C9       1.0000 0.02590  0.33710  0.61030  Biso   1.000  C
  C10      1.0000 0.02670  0.02590  0.61030  Biso   1.000  C
  C11      1.0000 0.02670  0.61030  0.33710  Biso   1.000  C
  C12      1.0000 0.61030  0.33710  0.02670  Biso   1.000  C
  C13      1.0000 0.02670  0.33710  0.02590  Biso   1.000  C
  C14      1.0000 0.61030  0.02590  0.33710  Biso   1.000  C
  C15      1.0000 0.02590  0.61030  0.02670  Biso   1.000  C
  C16      1.0000 0.33710  0.02590  0.02670  Biso   1.000  C
  C17      1.0000 0.33710  0.02670  0.61030  Biso   1.000  C
  C18      1.0000 0.33710  0.61030  0.02590  Biso   1.000  C
  C19      1.0000 0.61030  0.02670  0.02590  Biso   1.000  C
  C20      1.0000 0.02590  0.02670  0.33710  Biso   1.000  C
  C21      1.0000 0.57030  0.92970  0.92970  Biso   1.000  C
  C22      1.0000 0.04100  0.04060  0.53220  Biso   1.000  C
  C23      1.0000 0.53220  0.04060  0.38620  Biso   1.000  C
  C24      1.0000 0.57030  0.92970  0.57030  Biso   1.000  C
  C25      1.0000 0.99990  0.99990  0.50010  Biso   1.000  C
  C26      1.0000 0.57030  0.57030  0.92970  Biso   1.000  C
  C27      1.0000 0.50010  0.99990  0.99990  Biso   1.000  C
  C28      1.0000 0.04060  0.38620  0.53220  Biso   1.000  C
  C29      1.0000 0.04060  0.04100  0.38620  Biso   1.000  C
  C30      1.0000 0.38620  0.04060  0.04100  Biso   1.000  C
  C31      1.0000 0.92970  0.92970  0.57030  Biso   1.000  C
  C32      1.0000 0.53220  0.04100  0.04060  Biso   1.000  C
  C33      1.0000 0.04100  0.53220  0.38620  Biso   1.000  C
  C34      1.0000 0.99990  0.50010  0.50010  Biso   1.000  C
  C35      1.0000 0.50010  0.99990  0.50010  Biso   1.000  C
  C36      1.0000 0.38620  0.53220  0.04060  Biso   1.000  C
  C37      1.0000 0.92970  0.57030  0.92970  Biso   1.000  C
  C38      1.0000 0.99990  0.50010  0.99990  Biso   1.000  C
  C39      1.0000 0.53220  0.38620  0.04100  Biso   1.000  C
  C40      1.0000 0.04100  0.38620  0.04060  Biso   1.000  C
  C41      1.0000 0.04060  0.53220  0.04100  Biso   1.000  C
  C42      1.0000 0.92970  0.57030  0.57030  Biso   1.000  C
  C43      1.0000 0.50010  0.50010  0.99990  Biso   1.000  C
  C44      1.0000 0.38620  0.04100  0.53220  Biso   1.000  C
  C45      1.0000 0.10120  0.10140  0.44720  Biso   1.000  C
  C46      1.0000 0.10120  0.35020  0.10140  Biso   1.000  C
  C47      1.0000 0.35020  0.44720  0.10140  Biso   1.000  C
  C48      1.0000 0.10140  0.44720  0.10120  Biso   1.000  C
  C49      1.0000 0.10140  0.10120  0.35020  Biso   1.000  C
  C50      1.0000 0.44720  0.35020  0.10120  Biso   1.000  C
  C51      1.0000 0.35020  0.10140  0.10120  Biso   1.000  C
  C52      1.0000 0.44720  0.10120  0.10140  Biso   1.000  C
  C53      1.0000 0.10120  0.44720  0.35020  Biso   1.000  C
  C54      1.0000 0.35020  0.10120  0.44720  Biso   1.000  C
  C55      1.0000 0.44720  0.10140  0.35020  Biso   1.000  C
  C56      1.0000 0.10140  0.35020  0.44720  Biso   1.000  C
  C57      1.0000 0.53410  0.89550  0.67430  Biso   1.000  C
  C58      1.0000 0.89610  0.53410  0.67430  Biso   1.000  C
  C59      1.0000 0.89610  0.67430  0.89550  Biso   1.000  C
  C60      1.0000 0.53410  0.67430  0.89610  Biso   1.000  C
  C61      1.0000 0.89550  0.67430  0.53410  Biso   1.000  C
  C62      1.0000 0.67430  0.89550  0.89610  Biso   1.000  C
  C63      1.0000 0.67430  0.89610  0.53410  Biso   1.000  C
  C64      1.0000 0.53410  0.89610  0.89550  Biso   1.000  C
  C65      1.0000 0.25000  0.25000  0.25000  Biso   1.000  C
  C66      1.0000 0.89550  0.89610  0.67430  Biso   1.000  C
  C67      1.0000 0.89550  0.53410  0.89610  Biso   1.000  C
  C68      1.0000 0.89610  0.89550  0.53410  Biso   1.000  C
  C69      1.0000 0.67430  0.53410  0.89550  Biso   1.000  C
  C70      1.0000 0.75000  0.75000  0.75000  Biso   1.000  C
  O1       1.0000 0.54531  0.53520  0.34478  Biso   1.000  O
  O2       1.0000 0.54531  0.31108  0.56890  Biso   1.000  O
  O3       1.0000 0.54531  0.53520  0.56890  Biso   1.000  O
  O4       1.0000 0.15827  0.92284  0.95654  Biso   1.000  O
  O5       1.0000 0.93295  0.14816  0.95654  Biso   1.000  O
  O6       1.0000 0.93295  0.92284  0.18186  Biso   1.000  O
  O7       1.0000 0.32119  0.53520  0.56890  Biso   1.000  O
  O8       1.0000 0.93295  0.92284  0.95654  Biso   1.000  O
  O9       1.0000 0.71258  0.39207  0.15257  Biso   1.000  O
  O10      1.0000 0.40218  0.70327  0.15257  Biso   1.000  O
  O11      1.0000 0.71338  0.11887  0.42577  Biso   1.000  O
  O12      1.0000 0.71338  0.39207  0.73617  Biso   1.000  O
  O13      1.0000 0.12898  0.39207  0.73697  Biso   1.000  O
  O14      1.0000 0.71258  0.70327  0.42577  Biso   1.000  O
  O15      1.0000 0.40218  0.11887  0.73617  Biso   1.000  O
  O16      1.0000 0.12898  0.70327  0.73617  Biso   1.000  O
  O17      1.0000 0.71338  0.70247  0.15257  Biso   1.000  O
  O18      1.0000 0.71258  0.11887  0.73697  Biso   1.000  O
  O19      1.0000 0.40218  0.70247  0.73697  Biso   1.000  O
  O20      1.0000 0.12898  0.70247  0.42577  Biso   1.000  O
  O21      1.0000 0.16898  0.79947  0.83317  Biso   1.000  O
  O22      1.0000 0.35308  0.68857  0.23067  Biso   1.000  O
  O23      1.0000 0.69828  0.68857  0.37667  Biso   1.000  O
  O24      1.0000 0.80958  0.79947  0.19257  Biso   1.000  O
  O25      1.0000 0.23918  0.72927  0.26277  Biso   1.000  O
  O26      1.0000 0.80958  0.15887  0.83317  Biso   1.000  O
  O27      1.0000 0.23918  0.72927  0.76297  Biso   1.000  O
  O28      1.0000 0.69828  0.34297  0.23067  Biso   1.000  O
  O29      1.0000 0.20708  0.68817  0.37667  Biso   1.000  O
  O30      1.0000 0.20708  0.68857  0.72187  Biso   1.000  O
  O31      1.0000 0.16898  0.79947  0.19257  Biso   1.000  O
  O32      1.0000 0.35308  0.68817  0.72227  Biso   1.000  O
  O33      1.0000 0.69868  0.19697  0.37667  Biso   1.000  O
  O34      1.0000 0.73938  0.22907  0.26277  Biso   1.000  O
  O35      1.0000 0.73938  0.72927  0.26277  Biso   1.000  O
  O36      1.0000 0.69828  0.19697  0.72227  Biso   1.000  O
  O37      1.0000 0.16898  0.15887  0.83317  Biso   1.000  O
  O38      1.0000 0.23918  0.22907  0.76297  Biso   1.000  O
  O39      1.0000 0.69868  0.34297  0.72187  Biso   1.000  O
  O40      1.0000 0.20708  0.34297  0.72227  Biso   1.000  O
  O41      1.0000 0.35308  0.19697  0.72187  Biso   1.000  O
  O42      1.0000 0.80958  0.15887  0.19257  Biso   1.000  O
  O43      1.0000 0.73938  0.22907  0.76297  Biso   1.000  O
  O44      1.0000 0.69868  0.68817  0.23067  Biso   1.000  O
  O45      1.0000 0.38908  0.62777  0.31567  Biso   1.000  O
  O46      1.0000 0.29208  0.37897  0.66147  Biso   1.000  O
  O47      1.0000 0.63808  0.28197  0.66147  Biso   1.000  O
  O48      1.0000 0.38908  0.28197  0.66167  Biso   1.000  O
  O49      1.0000 0.29208  0.62797  0.41267  Biso   1.000  O
  O50      1.0000 0.63788  0.37897  0.66167  Biso   1.000  O
  O51      1.0000 0.29208  0.62777  0.66167  Biso   1.000  O
  O52      1.0000 0.38908  0.62797  0.66147  Biso   1.000  O
  O53      1.0000 0.63788  0.28197  0.41267  Biso   1.000  O
  O54      1.0000 0.63788  0.62797  0.31567  Biso   1.000  O
  O55      1.0000 0.63808  0.62777  0.41267  Biso   1.000  O
  O56      1.0000 0.63808  0.37897  0.31567  Biso   1.000  O
  O57      1.0000 0.84318  0.83367  0.08857  Biso   1.000  O
  O58      1.0000 0.84378  0.19507  0.08857  Biso   1.000  O
  O59      1.0000 0.20518  0.05487  0.86737  Biso   1.000  O
  O60      1.0000 0.84378  0.05487  0.86677  Biso   1.000  O
  O61      1.0000 0.84318  0.05487  0.22877  Biso   1.000  O
  O62      1.0000 0.20518  0.83367  0.86677  Biso   1.000  O
  O63      1.0000 0.84378  0.83307  0.22877  Biso   1.000  O
  O64      1.0000 0.06498  0.83307  0.86737  Biso   1.000  O
  O65      1.0000 0.48928  0.47917  0.51287  Biso   1.000  O
  O66      1.0000 0.20518  0.83307  0.08857  Biso   1.000  O
  O67      1.0000 0.06498  0.19507  0.86677  Biso   1.000  O
  O68      1.0000 0.06498  0.83367  0.22877  Biso   1.000  O
  O69      1.0000 0.84318  0.19507  0.86737  Biso   1.000  O
