data_image0
_cell_length_a       18.64
_cell_length_b       18.64
_cell_length_c       18.64
_cell_angle_alpha    90
_cell_angle_beta     90
_cell_angle_gamma    90

_symmetry_space_group_name_H-M    "P 1"
_symmetry_int_tables_number       1

loop_
  _symmetry_equiv_pos_as_xyz
  'x, y, z'

loop_
  _atom_site_label
  _atom_site_occupancy
  _atom_site_fract_x
  _atom_site_fract_y
  _atom_site_fract_z
  _atom_site_thermal_displace_type
  _atom_site_B_iso_or_equiv
  _atom_site_type_symbol
  Co1      1.0000 0.06672  0.93328  0.43328  Biso   1.000  Co
  Co2      1.0000 0.43328  0.06672  0.93328  Biso   1.000  Co
  Co3      1.0000 0.93328  0.43328  0.06672  Biso   1.000  Co
  Co4      1.0000 0.56672  0.56672  0.56672  Biso   1.000  Co
  Co5      1.0000 0.18328  0.81672  0.31672  Biso   1.000  Co
  Co6      1.0000 0.31672  0.18328  0.81672  Biso   1.000  Co
  Co7      1.0000 0.68328  0.68328  0.68328  Biso   1.000  Co
  Co8      1.0000 0.81672  0.31672  0.18328  Biso   1.000  Co
  H1       1.0000 0.96180  0.62500  0.28820  Biso   1.000  H
  H2       1.0000 0.53820  0.37500  0.78820  Biso   1.000  H
  H3       1.0000 0.03820  0.12500  0.21180  Biso   1.000  H
  H4       1.0000 0.46180  0.87500  0.71180  Biso   1.000  H
  H5       1.0000 0.28820  0.96180  0.62500  Biso   1.000  H
  H6       1.0000 0.78820  0.53820  0.37500  Biso   1.000  H
  H7       1.0000 0.21180  0.03820  0.12500  Biso   1.000  H
  H8       1.0000 0.71180  0.46180  0.87500  Biso   1.000  H
  H9       1.0000 0.62500  0.28820  0.96180  Biso   1.000  H
  H10      1.0000 0.37500  0.78820  0.53820  Biso   1.000  H
  H11      1.0000 0.12500  0.21180  0.03820  Biso   1.000  H
  H12      1.0000 0.87500  0.71180  0.46180  Biso   1.000  H
  C1       1.0000 0.92745  0.67745  0.37500  Biso   1.000  C
  C2       1.0000 0.98367  0.73367  0.37500  Biso   1.000  C
  C3       1.0000 0.57255  0.32255  0.87500  Biso   1.000  C
  C4       1.0000 0.51633  0.26633  0.87500  Biso   1.000  C
  C5       1.0000 0.07255  0.17745  0.12500  Biso   1.000  C
  C6       1.0000 0.01633  0.23367  0.12500  Biso   1.000  C
  C7       1.0000 0.42745  0.82255  0.62500  Biso   1.000  C
  C8       1.0000 0.48367  0.76633  0.62500  Biso   1.000  C
  C9       1.0000 0.37500  0.92745  0.67745  Biso   1.000  C
  C10      1.0000 0.37500  0.98367  0.73367  Biso   1.000  C
  C11      1.0000 0.87500  0.57255  0.32255  Biso   1.000  C
  C12      1.0000 0.87500  0.51633  0.26633  Biso   1.000  C
  C13      1.0000 0.12500  0.07255  0.17745  Biso   1.000  C
  C14      1.0000 0.12500  0.01633  0.23367  Biso   1.000  C
  C15      1.0000 0.62500  0.42745  0.82255  Biso   1.000  C
  C16      1.0000 0.62500  0.48367  0.76633  Biso   1.000  C
  C17      1.0000 0.67745  0.37500  0.92745  Biso   1.000  C
  C18      1.0000 0.73367  0.37500  0.98367  Biso   1.000  C
  C19      1.0000 0.32255  0.87500  0.57255  Biso   1.000  C
  C20      1.0000 0.26633  0.87500  0.51633  Biso   1.000  C
  C21      1.0000 0.17745  0.12500  0.07255  Biso   1.000  C
  C22      1.0000 0.23367  0.12500  0.01633  Biso   1.000  C
  C23      1.0000 0.82255  0.62500  0.42745  Biso   1.000  C
  C24      1.0000 0.76633  0.62500  0.48367  Biso   1.000  C
  C25      1.0000 0.92650  0.62500  0.32350  Biso   1.000  C
  C26      1.0000 0.57350  0.37500  0.82350  Biso   1.000  C
  C27      1.0000 0.07350  0.12500  0.17650  Biso   1.000  C
  C28      1.0000 0.42650  0.87500  0.67650  Biso   1.000  C
  C29      1.0000 0.32350  0.92650  0.62500  Biso   1.000  C
  C30      1.0000 0.82350  0.57350  0.37500  Biso   1.000  C
  C31      1.0000 0.17650  0.07350  0.12500  Biso   1.000  C
  C32      1.0000 0.67650  0.42650  0.87500  Biso   1.000  C
  C33      1.0000 0.62500  0.32350  0.92650  Biso   1.000  C
  C34      1.0000 0.37500  0.82350  0.57350  Biso   1.000  C
  C35      1.0000 0.12500  0.17650  0.07350  Biso   1.000  C
  C36      1.0000 0.87500  0.67650  0.42650  Biso   1.000  C
  N1       1.0000 0.03855  0.82939  0.39679  Biso   1.000  N
  N2       1.0000 0.97808  0.79449  0.41263  Biso   1.000  N
  N3       1.0000 0.46145  0.17061  0.89679  Biso   1.000  N
  N4       1.0000 0.52192  0.20551  0.91263  Biso   1.000  N
  N5       1.0000 0.96145  0.32939  0.10321  Biso   1.000  N
  N6       1.0000 0.02192  0.29449  0.08737  Biso   1.000  N
  N7       1.0000 0.53855  0.67061  0.60321  Biso   1.000  N
  N8       1.0000 0.47808  0.70551  0.58737  Biso   1.000  N
  N9       1.0000 0.39679  0.03855  0.82939  Biso   1.000  N
  N10      1.0000 0.41263  0.97808  0.79449  Biso   1.000  N
  N11      1.0000 0.89679  0.46145  0.17061  Biso   1.000  N
  N12      1.0000 0.91263  0.52192  0.20551  Biso   1.000  N
  N13      1.0000 0.10321  0.96145  0.32939  Biso   1.000  N
  N14      1.0000 0.08737  0.02192  0.29449  Biso   1.000  N
  N15      1.0000 0.60321  0.53855  0.67061  Biso   1.000  N
  N16      1.0000 0.58737  0.47808  0.70551  Biso   1.000  N
  N17      1.0000 0.82939  0.39679  0.03855  Biso   1.000  N
  N18      1.0000 0.79449  0.41263  0.97808  Biso   1.000  N
  N19      1.0000 0.17061  0.89679  0.46145  Biso   1.000  N
  N20      1.0000 0.20551  0.91263  0.52192  Biso   1.000  N
  N21      1.0000 0.32939  0.10321  0.96145  Biso   1.000  N
  N22      1.0000 0.29449  0.08737  0.02192  Biso   1.000  N
  N23      1.0000 0.67061  0.60321  0.53855  Biso   1.000  N
  N24      1.0000 0.70551  0.58737  0.47808  Biso   1.000  N
  N25      1.0000 0.07939  0.78855  0.35321  Biso   1.000  N
  N26      1.0000 0.04449  0.72808  0.33737  Biso   1.000  N
  N27      1.0000 0.42061  0.21145  0.85321  Biso   1.000  N
  N28      1.0000 0.45551  0.27192  0.83737  Biso   1.000  N
  N29      1.0000 0.57939  0.71145  0.64679  Biso   1.000  N
  N30      1.0000 0.54449  0.77192  0.66263  Biso   1.000  N
  N31      1.0000 0.92061  0.28855  0.14679  Biso   1.000  N
  N32      1.0000 0.95551  0.22808  0.16263  Biso   1.000  N
  N33      1.0000 0.28855  0.14679  0.92061  Biso   1.000  N
  N34      1.0000 0.22808  0.16263  0.95551  Biso   1.000  N
  N35      1.0000 0.71145  0.64679  0.57939  Biso   1.000  N
  N36      1.0000 0.77192  0.66263  0.54449  Biso   1.000  N
  N37      1.0000 0.21145  0.85321  0.42061  Biso   1.000  N
  N38      1.0000 0.27192  0.83737  0.45551  Biso   1.000  N
  N39      1.0000 0.78855  0.35321  0.07939  Biso   1.000  N
  N40      1.0000 0.72808  0.33737  0.04449  Biso   1.000  N
  N41      1.0000 0.64679  0.57939  0.71145  Biso   1.000  N
  N42      1.0000 0.66263  0.54449  0.77192  Biso   1.000  N
  N43      1.0000 0.14679  0.92061  0.28855  Biso   1.000  N
  N44      1.0000 0.16263  0.95551  0.22808  Biso   1.000  N
  N45      1.0000 0.35321  0.07939  0.78855  Biso   1.000  N
  N46      1.0000 0.33737  0.04449  0.72808  Biso   1.000  N
  N47      1.0000 0.85321  0.42061  0.21145  Biso   1.000  N
  N48      1.0000 0.83737  0.45551  0.27192  Biso   1.000  N
  Co9      1.0000 0.80472  0.80472  0.69742  Biso   1.000  Co
  Co10     1.0000 0.30472  0.67128  0.33086  Biso   1.000  Co
  Co11     1.0000 0.17128  0.30472  0.83086  Biso   1.000  Co
  Co12     1.0000 0.67128  0.17128  0.19742  Biso   1.000  Co
  Co13     1.0000 0.92128  0.92128  0.58086  Biso   1.000  Co
  Co14     1.0000 0.42128  0.55472  0.44742  Biso   1.000  Co
  Co15     1.0000 0.55472  0.05472  0.08086  Biso   1.000  Co
  Co16     1.0000 0.05472  0.42128  0.94742  Biso   1.000  Co
  H13      1.0000 0.94980  0.11300  0.80234  Biso   1.000  H
  H14      1.0000 0.44980  0.36300  0.22594  Biso   1.000  H
  H15      1.0000 0.02620  0.61300  0.72594  Biso   1.000  H
  H16      1.0000 0.52620  0.86300  0.30234  Biso   1.000  H
  H17      1.0000 0.61300  0.77620  0.47594  Biso   1.000  H
  H18      1.0000 0.86300  0.19980  0.97594  Biso   1.000  H
  H19      1.0000 0.11300  0.69980  0.55234  Biso   1.000  H
  H20      1.0000 0.36300  0.27620  0.05234  Biso   1.000  H
  H21      1.0000 0.27620  0.44980  0.13914  Biso   1.000  H
  H22      1.0000 0.69980  0.94980  0.38914  Biso   1.000  H
  H23      1.0000 0.19980  0.52620  0.63914  Biso   1.000  H
  H24      1.0000 0.77620  0.02620  0.88914  Biso   1.000  H
  C37      1.0000 0.86300  0.06055  0.83669  Biso   1.000  C
  C38      1.0000 0.86300  0.00433  0.78047  Biso   1.000  C
  C39      1.0000 0.36300  0.41545  0.19159  Biso   1.000  C
  C40      1.0000 0.36300  0.47167  0.24781  Biso   1.000  C
  C41      1.0000 0.11300  0.56055  0.69159  Biso   1.000  C
  C42      1.0000 0.11300  0.50433  0.74781  Biso   1.000  C
  C43      1.0000 0.61300  0.91545  0.33669  Biso   1.000  C
  C44      1.0000 0.61300  0.97167  0.28047  Biso   1.000  C
  C45      1.0000 0.56055  0.81055  0.38914  Biso   1.000  C
  C46      1.0000 0.50433  0.75433  0.38914  Biso   1.000  C
  C47      1.0000 0.91545  0.16545  0.88914  Biso   1.000  C
  C48      1.0000 0.97167  0.22167  0.88914  Biso   1.000  C
  C49      1.0000 0.06055  0.66545  0.63914  Biso   1.000  C
  C50      1.0000 0.00433  0.72167  0.63914  Biso   1.000  C
  C51      1.0000 0.41545  0.31055  0.13914  Biso   1.000  C
  C52      1.0000 0.47167  0.25433  0.13914  Biso   1.000  C
  C53      1.0000 0.31055  0.36300  0.08669  Biso   1.000  C
  C54      1.0000 0.25433  0.36300  0.03047  Biso   1.000  C
  C55      1.0000 0.66545  0.86300  0.44159  Biso   1.000  C
  C56      1.0000 0.72167  0.86300  0.49781  Biso   1.000  C
  C57      1.0000 0.16545  0.61300  0.58669  Biso   1.000  C
  C58      1.0000 0.22167  0.61300  0.53047  Biso   1.000  C
  C59      1.0000 0.81055  0.11300  0.94159  Biso   1.000  C
  C60      1.0000 0.75433  0.11300  0.99781  Biso   1.000  C
  C61      1.0000 0.91450  0.11300  0.83764  Biso   1.000  C
  C62      1.0000 0.41450  0.36300  0.19064  Biso   1.000  C
  C63      1.0000 0.06150  0.61300  0.69064  Biso   1.000  C
  C64      1.0000 0.56150  0.86300  0.33764  Biso   1.000  C
  C65      1.0000 0.61300  0.81150  0.44064  Biso   1.000  C
  C66      1.0000 0.86300  0.16450  0.94064  Biso   1.000  C
  C67      1.0000 0.11300  0.66450  0.58764  Biso   1.000  C
  C68      1.0000 0.36300  0.31150  0.08764  Biso   1.000  C
  C69      1.0000 0.31150  0.41450  0.13914  Biso   1.000  C
  C70      1.0000 0.66450  0.91450  0.38914  Biso   1.000  C
  C71      1.0000 0.16450  0.56150  0.63914  Biso   1.000  C
  C72      1.0000 0.81150  0.06150  0.88914  Biso   1.000  C
  N49      1.0000 0.84121  0.90861  0.72559  Biso   1.000  N
  N50      1.0000 0.82537  0.94351  0.78606  Biso   1.000  N
  N51      1.0000 0.34121  0.56739  0.30269  Biso   1.000  N
  N52      1.0000 0.32537  0.53249  0.24222  Biso   1.000  N
  N53      1.0000 0.13479  0.40861  0.80269  Biso   1.000  N
  N54      1.0000 0.15063  0.44351  0.74222  Biso   1.000  N
  N55      1.0000 0.63479  0.06739  0.22559  Biso   1.000  N
  N56      1.0000 0.65063  0.03249  0.28606  Biso   1.000  N
  N57      1.0000 0.40861  0.69945  0.36735  Biso   1.000  N
  N58      1.0000 0.44351  0.75992  0.35151  Biso   1.000  N
  N59      1.0000 0.06739  0.27655  0.86735  Biso   1.000  N
  N60      1.0000 0.03249  0.21608  0.85151  Biso   1.000  N
  N61      1.0000 0.90861  0.77655  0.66093  Biso   1.000  N
  N62      1.0000 0.94351  0.71608  0.67677  Biso   1.000  N
  N63      1.0000 0.56739  0.19945  0.16093  Biso   1.000  N
  N64      1.0000 0.53249  0.25992  0.17677  Biso   1.000  N
  N65      1.0000 0.19945  0.34121  0.93475  Biso   1.000  N
  N66      1.0000 0.25992  0.32537  0.96965  Biso   1.000  N
  N67      1.0000 0.77655  0.84121  0.59353  Biso   1.000  N
  N68      1.0000 0.71608  0.82537  0.55863  Biso   1.000  N
  N69      1.0000 0.27655  0.63479  0.43475  Biso   1.000  N
  N70      1.0000 0.21608  0.65063  0.46965  Biso   1.000  N
  N71      1.0000 0.69945  0.13479  0.09353  Biso   1.000  N
  N72      1.0000 0.75992  0.15063  0.05863  Biso   1.000  N
  N73      1.0000 0.88479  0.94945  0.68475  Biso   1.000  N
  N74      1.0000 0.90063  0.00992  0.71965  Biso   1.000  N
  N75      1.0000 0.38479  0.52655  0.34353  Biso   1.000  N
  N76      1.0000 0.40063  0.46608  0.30863  Biso   1.000  N
  N77      1.0000 0.59121  0.02655  0.18475  Biso   1.000  N
  N78      1.0000 0.57537  0.96608  0.21965  Biso   1.000  N
  N79      1.0000 0.09121  0.44945  0.84353  Biso   1.000  N
  N80      1.0000 0.07537  0.50992  0.80863  Biso   1.000  N
  N81      1.0000 0.31739  0.59121  0.47559  Biso   1.000  N
  N82      1.0000 0.28249  0.57537  0.53606  Biso   1.000  N
  N83      1.0000 0.65861  0.09121  0.05269  Biso   1.000  N
  N84      1.0000 0.69351  0.07537  0.99222  Biso   1.000  N
  N85      1.0000 0.81739  0.88479  0.55269  Biso   1.000  N
  N86      1.0000 0.78249  0.90063  0.49222  Biso   1.000  N
  N87      1.0000 0.15861  0.38479  0.97559  Biso   1.000  N
  N88      1.0000 0.19351  0.40063  0.03606  Biso   1.000  N
  N89      1.0000 0.52655  0.15861  0.11735  Biso   1.000  N
  N90      1.0000 0.46608  0.19351  0.10151  Biso   1.000  N
  N91      1.0000 0.94945  0.81739  0.61735  Biso   1.000  N
  N92      1.0000 0.00992  0.78249  0.60151  Biso   1.000  N
  N93      1.0000 0.44945  0.65861  0.41093  Biso   1.000  N
  N94      1.0000 0.50992  0.69351  0.42677  Biso   1.000  N
  N95      1.0000 0.02655  0.31739  0.91093  Biso   1.000  N
