data_image0
_cell_length_a       24.311
_cell_length_b       24.311
_cell_length_c       24.311
_cell_angle_alpha    60
_cell_angle_beta     60
_cell_angle_gamma    60

_symmetry_space_group_name_H-M    "P 1"
_symmetry_int_tables_number       1

loop_
  _symmetry_equiv_pos_as_xyz
  'x, y, z'

loop_
  _atom_site_label
  _atom_site_occupancy
  _atom_site_fract_x
  _atom_site_fract_y
  _atom_site_fract_z
  _atom_site_thermal_displace_type
  _atom_site_B_iso_or_equiv
  _atom_site_type_symbol
  C1       1.0000 0.21725  0.34825  0.21725  Biso   1.000  C
  C2       1.0000 0.34825  0.21725  0.21725  Biso   1.000  C
  C3       1.0000 0.21725  0.21725  0.21725  Biso   1.000  C
  C4       1.0000 0.21725  0.21725  0.34825  Biso   1.000  C
  C5       1.0000 0.65175  0.78275  0.78275  Biso   1.000  C
  C6       1.0000 0.78275  0.65175  0.78275  Biso   1.000  C
  C7       1.0000 0.78275  0.78275  0.78275  Biso   1.000  C
  C8       1.0000 0.78275  0.78275  0.65175  Biso   1.000  C
  C9       1.0000 0.48660  0.32100  0.09620  Biso   1.000  C
  C10      1.0000 0.59510  0.33870  0.03310  Biso   1.000  C
  C11      1.0000 0.32100  0.48660  0.09620  Biso   1.000  C
  C12      1.0000 0.33870  0.59510  0.03310  Biso   1.000  C
  C13      1.0000 0.09620  0.09620  0.48660  Biso   1.000  C
  C14      1.0000 0.03310  0.03310  0.59510  Biso   1.000  C
  C15      1.0000 0.09620  0.09620  0.32100  Biso   1.000  C
  C16      1.0000 0.03310  0.03310  0.33870  Biso   1.000  C
  C17      1.0000 0.48660  0.09620  0.09620  Biso   1.000  C
  C18      1.0000 0.59510  0.03310  0.03310  Biso   1.000  C
  C19      1.0000 0.32100  0.09620  0.09620  Biso   1.000  C
  C20      1.0000 0.33870  0.03310  0.03310  Biso   1.000  C
  C21      1.0000 0.09620  0.48660  0.32100  Biso   1.000  C
  C22      1.0000 0.03310  0.59510  0.33870  Biso   1.000  C
  C23      1.0000 0.09620  0.32100  0.48660  Biso   1.000  C
  C24      1.0000 0.03310  0.33870  0.59510  Biso   1.000  C
  C25      1.0000 0.48660  0.09620  0.32100  Biso   1.000  C
  C26      1.0000 0.59510  0.03310  0.33870  Biso   1.000  C
  C27      1.0000 0.32100  0.09620  0.48660  Biso   1.000  C
  C28      1.0000 0.33870  0.03310  0.59510  Biso   1.000  C
  C29      1.0000 0.09620  0.32100  0.09620  Biso   1.000  C
  C30      1.0000 0.03310  0.33870  0.03310  Biso   1.000  C
  C31      1.0000 0.09620  0.48660  0.09620  Biso   1.000  C
  C32      1.0000 0.03310  0.59510  0.03310  Biso   1.000  C
  C33      1.0000 0.67900  0.51340  0.90380  Biso   1.000  C
  C34      1.0000 0.66130  0.40490  0.96690  Biso   1.000  C
  C35      1.0000 0.51340  0.67900  0.90380  Biso   1.000  C
  C36      1.0000 0.40490  0.66130  0.96690  Biso   1.000  C
  C37      1.0000 0.90380  0.90380  0.51340  Biso   1.000  C
  C38      1.0000 0.96690  0.96690  0.40490  Biso   1.000  C
  C39      1.0000 0.90380  0.90380  0.67900  Biso   1.000  C
  C40      1.0000 0.96690  0.96690  0.66130  Biso   1.000  C
  C41      1.0000 0.90380  0.51340  0.90380  Biso   1.000  C
  C42      1.0000 0.96690  0.40490  0.96690  Biso   1.000  C
  C43      1.0000 0.90380  0.67900  0.90380  Biso   1.000  C
  C44      1.0000 0.96690  0.66130  0.96690  Biso   1.000  C
  C45      1.0000 0.51340  0.90380  0.67900  Biso   1.000  C
  C46      1.0000 0.40490  0.96690  0.66130  Biso   1.000  C
  C47      1.0000 0.67900  0.90380  0.51340  Biso   1.000  C
  C48      1.0000 0.66130  0.96690  0.40490  Biso   1.000  C
  C49      1.0000 0.90380  0.51340  0.67900  Biso   1.000  C
  C50      1.0000 0.96690  0.40490  0.66130  Biso   1.000  C
  C51      1.0000 0.90380  0.67900  0.51340  Biso   1.000  C
  C52      1.0000 0.96690  0.66130  0.40490  Biso   1.000  C
  C53      1.0000 0.67900  0.90380  0.90380  Biso   1.000  C
  C54      1.0000 0.66130  0.96690  0.96690  Biso   1.000  C
  C55      1.0000 0.51340  0.90380  0.90380  Biso   1.000  C
  C56      1.0000 0.40490  0.96690  0.96690  Biso   1.000  C
  C57      1.0000 0.46550  0.36750  0.08350  Biso   1.000  C
  C58      1.0000 0.50380  0.41060  0.04280  Biso   1.000  C
  C59      1.0000 0.57410  0.38530  0.02030  Biso   1.000  C
  C60      1.0000 0.36750  0.46550  0.08350  Biso   1.000  C
  C61      1.0000 0.41060  0.50380  0.04280  Biso   1.000  C
  C62      1.0000 0.38530  0.57410  0.02030  Biso   1.000  C
  C63      1.0000 0.08350  0.08350  0.46550  Biso   1.000  C
  C64      1.0000 0.04280  0.04280  0.50380  Biso   1.000  C
  C65      1.0000 0.02030  0.02030  0.57410  Biso   1.000  C
  C66      1.0000 0.08350  0.08350  0.36750  Biso   1.000  C
  C67      1.0000 0.04280  0.04280  0.41060  Biso   1.000  C
  C68      1.0000 0.02030  0.02030  0.38530  Biso   1.000  C
  C69      1.0000 0.46550  0.08350  0.08350  Biso   1.000  C
  C70      1.0000 0.50380  0.04280  0.04280  Biso   1.000  C
  C71      1.0000 0.57410  0.02030  0.02030  Biso   1.000  C
  C72      1.0000 0.36750  0.08350  0.08350  Biso   1.000  C
  C73      1.0000 0.41060  0.04280  0.04280  Biso   1.000  C
  C74      1.0000 0.38530  0.02030  0.02030  Biso   1.000  C
  C75      1.0000 0.08350  0.46550  0.36750  Biso   1.000  C
  C76      1.0000 0.04280  0.50380  0.41060  Biso   1.000  C
  C77      1.0000 0.02030  0.57410  0.38530  Biso   1.000  C
  C78      1.0000 0.08350  0.36750  0.46550  Biso   1.000  C
  C79      1.0000 0.04280  0.41060  0.50380  Biso   1.000  C
  C80      1.0000 0.02030  0.38530  0.57410  Biso   1.000  C
  C81      1.0000 0.46550  0.08350  0.36750  Biso   1.000  C
  C82      1.0000 0.50380  0.04280  0.41060  Biso   1.000  C
  C83      1.0000 0.57410  0.02030  0.38530  Biso   1.000  C
  C84      1.0000 0.36750  0.08350  0.46550  Biso   1.000  C
  C85      1.0000 0.41060  0.04280  0.50380  Biso   1.000  C
  C86      1.0000 0.38530  0.02030  0.57410  Biso   1.000  C
  C87      1.0000 0.08350  0.36750  0.08350  Biso   1.000  C
  C88      1.0000 0.04280  0.41060  0.04280  Biso   1.000  C
  C89      1.0000 0.02030  0.38530  0.02030  Biso   1.000  C
  C90      1.0000 0.08350  0.46550  0.08350  Biso   1.000  C
  C91      1.0000 0.04280  0.50380  0.04280  Biso   1.000  C
  C92      1.0000 0.02030  0.57410  0.02030  Biso   1.000  C
  C93      1.0000 0.63250  0.53450  0.91650  Biso   1.000  C
  C94      1.0000 0.58940  0.49620  0.95720  Biso   1.000  C
  C95      1.0000 0.61470  0.42590  0.97970  Biso   1.000  C
  C96      1.0000 0.53450  0.63250  0.91650  Biso   1.000  C
  C97      1.0000 0.49620  0.58940  0.95720  Biso   1.000  C
  C98      1.0000 0.42590  0.61470  0.97970  Biso   1.000  C
  C99      1.0000 0.91650  0.91650  0.53450  Biso   1.000  C
  C100     1.0000 0.95720  0.95720  0.49620  Biso   1.000  C
  C101     1.0000 0.97970  0.97970  0.42590  Biso   1.000  C
  C102     1.0000 0.91650  0.91650  0.63250  Biso   1.000  C
  C103     1.0000 0.95720  0.95720  0.58940  Biso   1.000  C
  C104     1.0000 0.97970  0.97970  0.61470  Biso   1.000  C
  C105     1.0000 0.91650  0.53450  0.91650  Biso   1.000  C
  C106     1.0000 0.95720  0.49620  0.95720  Biso   1.000  C
  C107     1.0000 0.97970  0.42590  0.97970  Biso   1.000  C
  C108     1.0000 0.91650  0.63250  0.91650  Biso   1.000  C
  C109     1.0000 0.95720  0.58940  0.95720  Biso   1.000  C
  C110     1.0000 0.97970  0.61470  0.97970  Biso   1.000  C
  C111     1.0000 0.53450  0.91650  0.63250  Biso   1.000  C
  C112     1.0000 0.49620  0.95720  0.58940  Biso   1.000  C
  C113     1.0000 0.42590  0.97970  0.61470  Biso   1.000  C
  C114     1.0000 0.63250  0.91650  0.53450  Biso   1.000  C
  C115     1.0000 0.58940  0.95720  0.49620  Biso   1.000  C
  C116     1.0000 0.61470  0.97970  0.42590  Biso   1.000  C
  C117     1.0000 0.91650  0.53450  0.63250  Biso   1.000  C
  C118     1.0000 0.95720  0.49620  0.58940  Biso   1.000  C
  C119     1.0000 0.97970  0.42590  0.61470  Biso   1.000  C
  C120     1.0000 0.91650  0.63250  0.53450  Biso   1.000  C
  C121     1.0000 0.95720  0.58940  0.49620  Biso   1.000  C
  C122     1.0000 0.97970  0.61470  0.42590  Biso   1.000  C
  C123     1.0000 0.63250  0.91650  0.91650  Biso   1.000  C
  C124     1.0000 0.58940  0.95720  0.95720  Biso   1.000  C
  C125     1.0000 0.61470  0.97970  0.97970  Biso   1.000  C
  C126     1.0000 0.53450  0.91650  0.91650  Biso   1.000  C
  C127     1.0000 0.49620  0.95720  0.95720  Biso   1.000  C
  C128     1.0000 0.42590  0.97970  0.97970  Biso   1.000  C
  C129     1.0000 0.39520  0.39520  0.10480  Biso   1.000  C
  C130     1.0000 0.35630  0.35630  0.14370  Biso   1.000  C
  C131     1.0000 0.48080  0.48080  0.01920  Biso   1.000  C
  C132     1.0000 0.10480  0.10480  0.39520  Biso   1.000  C
  C133     1.0000 0.14370  0.14370  0.35630  Biso   1.000  C
  C134     1.0000 0.01920  0.01920  0.48080  Biso   1.000  C
  C135     1.0000 0.39520  0.10480  0.10480  Biso   1.000  C
  C136     1.0000 0.35630  0.14370  0.14370  Biso   1.000  C
  C137     1.0000 0.48080  0.01920  0.01920  Biso   1.000  C
  C138     1.0000 0.10480  0.39520  0.39520  Biso   1.000  C
  C139     1.0000 0.14370  0.35630  0.35630  Biso   1.000  C
  C140     1.0000 0.01920  0.48080  0.48080  Biso   1.000  C
  C141     1.0000 0.39520  0.10480  0.39520  Biso   1.000  C
  C142     1.0000 0.35630  0.14370  0.35630  Biso   1.000  C
  C143     1.0000 0.48080  0.01920  0.48080  Biso   1.000  C
  C144     1.0000 0.10480  0.39520  0.10480  Biso   1.000  C
  C145     1.0000 0.14370  0.35630  0.14370  Biso   1.000  C
  C146     1.0000 0.01920  0.48080  0.01920  Biso   1.000  C
  C147     1.0000 0.60480  0.60480  0.89520  Biso   1.000  C
  C148     1.0000 0.64370  0.64370  0.85630  Biso   1.000  C
  C149     1.0000 0.51920  0.51920  0.98080  Biso   1.000  C
  C150     1.0000 0.89520  0.89520  0.60480  Biso   1.000  C
  C151     1.0000 0.85630  0.85630  0.64370  Biso   1.000  C
  C152     1.0000 0.98080  0.98080  0.51920  Biso   1.000  C
  C153     1.0000 0.89520  0.60480  0.89520  Biso   1.000  C
  C154     1.0000 0.85630  0.64370  0.85630  Biso   1.000  C
  C155     1.0000 0.98080  0.51920  0.98080  Biso   1.000  C
  C156     1.0000 0.60480  0.89520  0.60480  Biso   1.000  C
  C157     1.0000 0.64370  0.85630  0.64370  Biso   1.000  C
  C158     1.0000 0.51920  0.98080  0.51920  Biso   1.000  C
  C159     1.0000 0.89520  0.60480  0.60480  Biso   1.000  C
  C160     1.0000 0.85630  0.64370  0.64370  Biso   1.000  C
  C161     1.0000 0.98080  0.51920  0.51920  Biso   1.000  C
  C162     1.0000 0.60480  0.89520  0.89520  Biso   1.000  C
  C163     1.0000 0.64370  0.85630  0.85630  Biso   1.000  C
  C164     1.0000 0.51920  0.98080  0.98080  Biso   1.000  C
  C165     1.0000 0.25000  0.25000  0.25000  Biso   1.000  C
  C166     1.0000 0.75000  0.75000  0.75000  Biso   1.000  C
  C167     1.0000 0.29370  0.38370  0.16130  Biso   1.000  C
  C168     1.0000 0.38370  0.29370  0.16130  Biso   1.000  C
  C169     1.0000 0.16130  0.16130  0.29370  Biso   1.000  C
  C170     1.0000 0.16130  0.16130  0.38370  Biso   1.000  C
  C171     1.0000 0.29370  0.16130  0.16130  Biso   1.000  C
  C172     1.0000 0.38370  0.16130  0.16130  Biso   1.000  C
  C173     1.0000 0.16130  0.29370  0.38370  Biso   1.000  C
  C174     1.0000 0.16130  0.38370  0.29370  Biso   1.000  C
  C175     1.0000 0.29370  0.16130  0.38370  Biso   1.000  C
  C176     1.0000 0.38370  0.16130  0.29370  Biso   1.000  C
  C177     1.0000 0.16130  0.38370  0.16130  Biso   1.000  C
  C178     1.0000 0.16130  0.29370  0.16130  Biso   1.000  C
  C179     1.0000 0.61630  0.70630  0.83870  Biso   1.000  C
  C180     1.0000 0.70630  0.61630  0.83870  Biso   1.000  C
  C181     1.0000 0.83870  0.83870  0.70630  Biso   1.000  C
  C182     1.0000 0.83870  0.83870  0.61630  Biso   1.000  C
  C183     1.0000 0.83870  0.70630  0.83870  Biso   1.000  C
  C184     1.0000 0.83870  0.61630  0.83870  Biso   1.000  C
  C185     1.0000 0.70630  0.83870  0.61630  Biso   1.000  C
  C186     1.0000 0.61630  0.83870  0.70630  Biso   1.000  C
  C187     1.0000 0.83870  0.70630  0.61630  Biso   1.000  C
  C188     1.0000 0.83870  0.61630  0.70630  Biso   1.000  C
  C189     1.0000 0.61630  0.83870  0.83870  Biso   1.000  C
  C190     1.0000 0.70630  0.83870  0.83870  Biso   1.000  C
  O1       1.0000 0.96199  0.82087  0.95719  Biso   1.000  O
  O2       1.0000 0.96199  0.95187  0.95719  Biso   1.000  O
  O3       1.0000 0.83099  0.95187  0.95719  Biso   1.000  O
  O4       1.0000 0.96199  0.95187  0.82619  Biso   1.000  O
  O5       1.0000 0.39649  0.38637  0.39169  Biso   1.000  O
  O6       1.0000 0.39649  0.51737  0.39169  Biso   1.000  O
  O7       1.0000 0.52749  0.38637  0.39169  Biso   1.000  O
  O8       1.0000 0.39649  0.38637  0.52269  Biso   1.000  O
  O9       1.0000 0.08304  0.84812  0.07824  Biso   1.000  O
  O10      1.0000 0.14614  0.83042  0.14134  Biso   1.000  O
  O11      1.0000 0.08304  0.68252  0.07824  Biso   1.000  O
  O12      1.0000 0.14614  0.57402  0.14134  Biso   1.000  O
  O13      1.0000 0.85824  0.07292  0.68784  Biso   1.000  O
  O14      1.0000 0.84054  0.13602  0.57934  Biso   1.000  O
  O15      1.0000 0.69264  0.07292  0.85344  Biso   1.000  O
  O16      1.0000 0.58414  0.13602  0.83574  Biso   1.000  O
  O17      1.0000 0.85824  0.07292  0.07824  Biso   1.000  O
  O18      1.0000 0.84054  0.13602  0.14134  Biso   1.000  O
  O19      1.0000 0.69264  0.07292  0.07824  Biso   1.000  O
  O20      1.0000 0.58414  0.13602  0.14134  Biso   1.000  O
  O21      1.0000 0.08304  0.68252  0.85344  Biso   1.000  O
  O22      1.0000 0.14614  0.57402  0.83574  Biso   1.000  O
  O23      1.0000 0.08304  0.84812  0.68784  Biso   1.000  O
  O24      1.0000 0.14614  0.83042  0.57934  Biso   1.000  O
  O25      1.0000 0.08304  0.07292  0.85344  Biso   1.000  O
  O26      1.0000 0.14614  0.13602  0.83574  Biso   1.000  O
  O27      1.0000 0.08304  0.07292  0.68784  Biso   1.000  O
  O28      1.0000 0.14614  0.13602  0.57934  Biso   1.000  O
  O29      1.0000 0.69264  0.84812  0.07824  Biso   1.000  O
  O30      1.0000 0.58414  0.83042  0.14134  Biso   1.000  O
  O31      1.0000 0.85824  0.68252  0.07824  Biso   1.000  O
  O32      1.0000 0.84054  0.57402  0.14134  Biso   1.000  O
  O33      1.0000 0.27544  0.65572  0.27064  Biso   1.000  O
  O34      1.0000 0.21234  0.76422  0.20754  Biso   1.000  O
  O35      1.0000 0.27544  0.49012  0.27064  Biso   1.000  O
  O36      1.0000 0.21234  0.50782  0.20754  Biso   1.000  O
  O37      1.0000 0.50024  0.26532  0.66104  Biso   1.000  O
  O38      1.0000 0.51794  0.20222  0.76954  Biso   1.000  O
  O39      1.0000 0.66584  0.26532  0.49544  Biso   1.000  O
  O40      1.0000 0.77434  0.20222  0.51314  Biso   1.000  O
  O41      1.0000 0.50024  0.65572  0.27064  Biso   1.000  O
  O42      1.0000 0.51794  0.76422  0.20754  Biso   1.000  O
  O43      1.0000 0.66584  0.49012  0.27064  Biso   1.000  O
  O44      1.0000 0.77434  0.50782  0.20754  Biso   1.000  O
  O45      1.0000 0.27544  0.26532  0.49544  Biso   1.000  O
  O46      1.0000 0.21234  0.20222  0.51314  Biso   1.000  O
  O47      1.0000 0.27544  0.26532  0.66104  Biso   1.000  O
  O48      1.0000 0.21234  0.20222  0.76954  Biso   1.000  O
  O49      1.0000 0.27544  0.65572  0.49544  Biso   1.000  O
  O50      1.0000 0.21234  0.76422  0.51314  Biso   1.000  O
  O51      1.0000 0.27544  0.49012  0.66104  Biso   1.000  O
  O52      1.0000 0.21234  0.50782  0.76954  Biso   1.000  O
  O53      1.0000 0.66584  0.26532  0.27064  Biso   1.000  O
  O54      1.0000 0.77434  0.20222  0.20754  Biso   1.000  O
  O55      1.0000 0.50024  0.26532  0.27064  Biso   1.000  O
  O56      1.0000 0.51794  0.20222  0.20754  Biso   1.000  O
  O57      1.0000 0.09574  0.80162  0.09094  Biso   1.000  O
  O58      1.0000 0.13644  0.75852  0.13164  Biso   1.000  O
  O59      1.0000 0.15894  0.78382  0.15414  Biso   1.000  O
  O60      1.0000 0.09574  0.70362  0.09094  Biso   1.000  O
  O61      1.0000 0.13644  0.66532  0.13164  Biso   1.000  O
  O62      1.0000 0.15894  0.59502  0.15414  Biso   1.000  O
  O63      1.0000 0.81174  0.08562  0.70894  Biso   1.000  O
  O64      1.0000 0.76864  0.12632  0.67064  Biso   1.000  O
  O65      1.0000 0.79394  0.14882  0.60034  Biso   1.000  O
  O66      1.0000 0.71374  0.08562  0.80694  Biso   1.000  O
  O67      1.0000 0.67544  0.12632  0.76384  Biso   1.000  O
  O68      1.0000 0.60514  0.14882  0.78914  Biso   1.000  O
  O69      1.0000 0.81174  0.08562  0.09094  Biso   1.000  O
  O70      1.0000 0.76864  0.12632  0.13164  Biso   1.000  O
  O71      1.0000 0.79394  0.14882  0.15414  Biso   1.000  O
  O72      1.0000 0.71374  0.08562  0.09094  Biso   1.000  O
  O73      1.0000 0.67544  0.12632  0.13164  Biso   1.000  O
  O74      1.0000 0.60514  0.14882  0.15414  Biso   1.000  O
  O75      1.0000 0.09574  0.70362  0.80694  Biso   1.000  O
  O76      1.0000 0.13644  0.66532  0.76384  Biso   1.000  O
  O77      1.0000 0.15894  0.59502  0.78914  Biso   1.000  O
  O78      1.0000 0.09574  0.80162  0.70894  Biso   1.000  O
  O79      1.0000 0.13644  0.75852  0.67064  Biso   1.000  O
  O80      1.0000 0.15894  0.78382  0.60034  Biso   1.000  O
  O81      1.0000 0.09574  0.08562  0.80694  Biso   1.000  O
  O82      1.0000 0.13644  0.12632  0.76384  Biso   1.000  O
  O83      1.0000 0.15894  0.14882  0.78914  Biso   1.000  O
  O84      1.0000 0.09574  0.08562  0.70894  Biso   1.000  O
  O85      1.0000 0.13644  0.12632  0.67064  Biso   1.000  O
  O86      1.0000 0.15894  0.14882  0.60034  Biso   1.000  O
  O87      1.0000 0.71374  0.80162  0.09094  Biso   1.000  O
  O88      1.0000 0.67544  0.75852  0.13164  Biso   1.000  O
  O89      1.0000 0.60514  0.78382  0.15414  Biso   1.000  O
  O90      1.0000 0.81174  0.70362  0.09094  Biso   1.000  O
  O91      1.0000 0.76864  0.66532  0.13164  Biso   1.000  O
  O92      1.0000 0.79394  0.59502  0.15414  Biso   1.000  O
  O93      1.0000 0.26274  0.63462  0.25794  Biso   1.000  O
  O94      1.0000 0.22204  0.67292  0.21724  Biso   1.000  O
  O95      1.0000 0.19954  0.74322  0.19474  Biso   1.000  O
  O96      1.0000 0.26274  0.53662  0.25794  Biso   1.000  O
  O97      1.0000 0.22204  0.57972  0.21724  Biso   1.000  O
  O98      1.0000 0.19954  0.55442  0.19474  Biso   1.000  O
  O99      1.0000 0.54674  0.25262  0.63994  Biso   1.000  O
  O100     1.0000 0.58984  0.21192  0.67824  Biso   1.000  O
  O101     1.0000 0.56454  0.18942  0.74854  Biso   1.000  O
  O102     1.0000 0.64474  0.25262  0.54194  Biso   1.000  O
  O103     1.0000 0.68304  0.21192  0.58504  Biso   1.000  O
  O104     1.0000 0.75334  0.18942  0.55974  Biso   1.000  O
  O105     1.0000 0.54674  0.63462  0.25794  Biso   1.000  O
  O106     1.0000 0.58984  0.67292  0.21724  Biso   1.000  O
  O107     1.0000 0.56454  0.74322  0.19474  Biso   1.000  O
  O108     1.0000 0.64474  0.53662  0.25794  Biso   1.000  O
  O109     1.0000 0.68304  0.57972  0.21724  Biso   1.000  O
  O110     1.0000 0.75334  0.55442  0.19474  Biso   1.000  O
  O111     1.0000 0.26274  0.25262  0.54194  Biso   1.000  O
  O112     1.0000 0.22204  0.21192  0.58504  Biso   1.000  O
  O113     1.0000 0.19954  0.18942  0.55974  Biso   1.000  O
  O114     1.0000 0.26274  0.25262  0.63994  Biso   1.000  O
  O115     1.0000 0.22204  0.21192  0.67824  Biso   1.000  O
  O116     1.0000 0.19954  0.18942  0.74854  Biso   1.000  O
  O117     1.0000 0.26274  0.63462  0.54194  Biso   1.000  O
  O118     1.0000 0.22204  0.67292  0.58504  Biso   1.000  O
  O119     1.0000 0.19954  0.74322  0.55974  Biso   1.000  O
  O120     1.0000 0.26274  0.53662  0.63994  Biso   1.000  O
  O121     1.0000 0.22204  0.57972  0.67824  Biso   1.000  O
  O122     1.0000 0.19954  0.55442  0.74854  Biso   1.000  O
  O123     1.0000 0.64474  0.25262  0.25794  Biso   1.000  O
  O124     1.0000 0.68304  0.21192  0.21724  Biso   1.000  O
  O125     1.0000 0.75334  0.18942  0.19474  Biso   1.000  O
  O126     1.0000 0.54674  0.25262  0.25794  Biso   1.000  O
  O127     1.0000 0.58984  0.21192  0.21724  Biso   1.000  O
  O128     1.0000 0.56454  0.18942  0.19474  Biso   1.000  O
  O129     1.0000 0.07444  0.77392  0.06964  Biso   1.000  O
  O130     1.0000 0.03554  0.81282  0.03074  Biso   1.000  O
  O131     1.0000 0.16004  0.68832  0.15524  Biso   1.000  O
  O132     1.0000 0.78404  0.06432  0.77924  Biso   1.000  O
  O133     1.0000 0.82294  0.02542  0.81814  Biso   1.000  O
  O134     1.0000 0.69844  0.14992  0.69364  Biso   1.000  O
  O135     1.0000 0.78404  0.06432  0.06964  Biso   1.000  O
  O136     1.0000 0.82294  0.02542  0.03074  Biso   1.000  O
  O137     1.0000 0.69844  0.14992  0.15524  Biso   1.000  O
  O138     1.0000 0.07444  0.77392  0.77924  Biso   1.000  O
  O139     1.0000 0.03554  0.81282  0.81814  Biso   1.000  O
  O140     1.0000 0.16004  0.68832  0.69364  Biso   1.000  O
  O141     1.0000 0.07444  0.06432  0.77924  Biso   1.000  O
  O142     1.0000 0.03554  0.02542  0.81814  Biso   1.000  O
  O143     1.0000 0.16004  0.14992  0.69364  Biso   1.000  O
  O144     1.0000 0.78404  0.77392  0.06964  Biso   1.000  O
  O145     1.0000 0.82294  0.81282  0.03074  Biso   1.000  O
  O146     1.0000 0.69844  0.68832  0.15524  Biso   1.000  O
  O147     1.0000 0.28404  0.56432  0.27924  Biso   1.000  O
  O148     1.0000 0.32294  0.52542  0.31814  Biso   1.000  O
  O149     1.0000 0.19844  0.64992  0.19364  Biso   1.000  O
  O150     1.0000 0.57444  0.27392  0.56964  Biso   1.000  O
  O151     1.0000 0.53554  0.31282  0.53074  Biso   1.000  O
  O152     1.0000 0.66004  0.18832  0.65524  Biso   1.000  O
  O153     1.0000 0.57444  0.56432  0.27924  Biso   1.000  O
  O154     1.0000 0.53554  0.52542  0.31814  Biso   1.000  O
  O155     1.0000 0.66004  0.64992  0.19364  Biso   1.000  O
  O156     1.0000 0.28404  0.27392  0.56964  Biso   1.000  O
  O157     1.0000 0.32294  0.31282  0.53074  Biso   1.000  O
  O158     1.0000 0.19844  0.18832  0.65524  Biso   1.000  O
  O159     1.0000 0.28404  0.56432  0.56964  Biso   1.000  O
  O160     1.0000 0.32294  0.52542  0.53074  Biso   1.000  O
  O161     1.0000 0.19844  0.64992  0.65524  Biso   1.000  O
  O162     1.0000 0.57444  0.27392  0.27924  Biso   1.000  O
  O163     1.0000 0.53554  0.31282  0.31814  Biso   1.000  O
  O164     1.0000 0.66004  0.18832  0.19364  Biso   1.000  O
  O165     1.0000 0.92924  0.91912  0.92444  Biso   1.000  O
  O166     1.0000 0.42924  0.41912  0.42444  Biso   1.000  O
  O167     1.0000 0.01794  0.78542  0.01314  Biso   1.000  O
  O168     1.0000 0.01794  0.87542  0.01314  Biso   1.000  O
  O169     1.0000 0.79554  0.00782  0.88074  Biso   1.000  O
  O170     1.0000 0.88554  0.00782  0.79074  Biso   1.000  O
  O171     1.0000 0.79554  0.00782  0.01314  Biso   1.000  O
  O172     1.0000 0.88554  0.00782  0.01314  Biso   1.000  O
  O173     1.0000 0.01794  0.87542  0.79074  Biso   1.000  O
  O174     1.0000 0.01794  0.78542  0.88074  Biso   1.000  O
  O175     1.0000 0.01794  0.00782  0.79074  Biso   1.000  O
  O176     1.0000 0.01794  0.00782  0.88074  Biso   1.000  O
  O177     1.0000 0.88554  0.78542  0.01314  Biso   1.000  O
  O178     1.0000 0.79554  0.87542  0.01314  Biso   1.000  O
  O179     1.0000 0.34054  0.46282  0.33574  Biso   1.000  O
  O180     1.0000 0.34054  0.55282  0.33574  Biso   1.000  O
  O181     1.0000 0.56294  0.33042  0.46814  Biso   1.000  O
  O182     1.0000 0.47294  0.33042  0.55814  Biso   1.000  O
  O183     1.0000 0.56294  0.46282  0.33574  Biso   1.000  O
  O184     1.0000 0.47294  0.55282  0.33574  Biso   1.000  O
  O185     1.0000 0.34054  0.33042  0.55814  Biso   1.000  O
  O186     1.0000 0.34054  0.33042  0.46814  Biso   1.000  O
  O187     1.0000 0.34054  0.46282  0.55814  Biso   1.000  O
  O188     1.0000 0.34054  0.55282  0.46814  Biso   1.000  O
  O189     1.0000 0.47294  0.33042  0.33574  Biso   1.000  O
