data_image0
_cell_length_a       18.3149
_cell_length_b       18.3149
_cell_length_c       18.3149
_cell_angle_alpha    60.3295
_cell_angle_beta     60.3295
_cell_angle_gamma    60.3295

_symmetry_space_group_name_H-M    "P 1"
_symmetry_int_tables_number       1

loop_
  _symmetry_equiv_pos_as_xyz
  'x, y, z'

loop_
  _atom_site_label
  _atom_site_occupancy
  _atom_site_fract_x
  _atom_site_fract_y
  _atom_site_fract_z
  _atom_site_thermal_displace_type
  _atom_site_B_iso_or_equiv
  _atom_site_type_symbol
  Zn1      1.0000 0.20609  0.20609  0.20609  Biso   1.000  Zn
  Zn2      1.0000 0.79391  0.79391  0.79391  Biso   1.000  Zn
  Zn3      1.0000 0.20677  0.37952  0.20677  Biso   1.000  Zn
  Zn4      1.0000 0.20677  0.20677  0.37952  Biso   1.000  Zn
  Zn5      1.0000 0.37952  0.20677  0.20677  Biso   1.000  Zn
  Zn6      1.0000 0.62048  0.79323  0.79323  Biso   1.000  Zn
  Zn7      1.0000 0.79323  0.79323  0.62048  Biso   1.000  Zn
  Zn8      1.0000 0.79323  0.62048  0.79323  Biso   1.000  Zn
  H1       1.0000 0.04260  0.34350  0.56530  Biso   1.000  H
  H2       1.0000 0.56530  0.04260  0.34350  Biso   1.000  H
  H3       1.0000 0.34350  0.56530  0.04260  Biso   1.000  H
  H4       1.0000 0.65650  0.95740  0.43470  Biso   1.000  H
  H5       1.0000 0.95740  0.43470  0.65650  Biso   1.000  H
  H6       1.0000 0.43470  0.65650  0.95740  Biso   1.000  H
  H7       1.0000 0.95740  0.65650  0.43470  Biso   1.000  H
  H8       1.0000 0.43470  0.95740  0.65650  Biso   1.000  H
  H9       1.0000 0.65650  0.43470  0.95740  Biso   1.000  H
  H10      1.0000 0.34350  0.04260  0.56530  Biso   1.000  H
  H11      1.0000 0.04260  0.56530  0.34350  Biso   1.000  H
  H12      1.0000 0.56530  0.34350  0.04260  Biso   1.000  H
  H13      1.0000 0.04880  0.55860  0.04880  Biso   1.000  H
  H14      1.0000 0.04170  0.34450  0.04170  Biso   1.000  H
  H15      1.0000 0.04880  0.04880  0.55860  Biso   1.000  H
  H16      1.0000 0.04170  0.04170  0.34450  Biso   1.000  H
  H17      1.0000 0.55860  0.04880  0.04880  Biso   1.000  H
  H18      1.0000 0.34450  0.04170  0.04170  Biso   1.000  H
  H19      1.0000 0.44140  0.95120  0.95120  Biso   1.000  H
  H20      1.0000 0.65550  0.95830  0.95830  Biso   1.000  H
  H21      1.0000 0.95120  0.95120  0.44140  Biso   1.000  H
  H22      1.0000 0.95830  0.95830  0.65550  Biso   1.000  H
  H23      1.0000 0.95120  0.44140  0.95120  Biso   1.000  H
  H24      1.0000 0.95830  0.65550  0.95830  Biso   1.000  H
  C1       1.0000 0.02770  0.40510  0.53870  Biso   1.000  C
  C2       1.0000 0.53870  0.02770  0.40510  Biso   1.000  C
  C3       1.0000 0.40510  0.53870  0.02770  Biso   1.000  C
  C4       1.0000 0.59490  0.97230  0.46130  Biso   1.000  C
  C5       1.0000 0.97230  0.46130  0.59490  Biso   1.000  C
  C6       1.0000 0.46130  0.59490  0.97230  Biso   1.000  C
  C7       1.0000 0.97230  0.59490  0.46130  Biso   1.000  C
  C8       1.0000 0.46130  0.97230  0.59490  Biso   1.000  C
  C9       1.0000 0.59490  0.46130  0.97230  Biso   1.000  C
  C10      1.0000 0.40510  0.02770  0.53870  Biso   1.000  C
  C11      1.0000 0.02770  0.53870  0.40510  Biso   1.000  C
  C12      1.0000 0.53870  0.40510  0.02770  Biso   1.000  C
  C13      1.0000 0.11130  0.39010  0.11130  Biso   1.000  C
  C14      1.0000 0.05390  0.44400  0.05390  Biso   1.000  C
  C15      1.0000 0.02940  0.53530  0.02940  Biso   1.000  C
  C16      1.0000 0.02520  0.40600  0.02520  Biso   1.000  C
  C17      1.0000 0.11130  0.11130  0.39010  Biso   1.000  C
  C18      1.0000 0.05390  0.05390  0.44400  Biso   1.000  C
  C19      1.0000 0.02940  0.02940  0.53530  Biso   1.000  C
  C20      1.0000 0.02520  0.02520  0.40600  Biso   1.000  C
  C21      1.0000 0.39010  0.11130  0.11130  Biso   1.000  C
  C22      1.0000 0.44400  0.05390  0.05390  Biso   1.000  C
  C23      1.0000 0.53530  0.02940  0.02940  Biso   1.000  C
  C24      1.0000 0.40600  0.02520  0.02520  Biso   1.000  C
  C25      1.0000 0.60990  0.88870  0.88870  Biso   1.000  C
  C26      1.0000 0.55600  0.94610  0.94610  Biso   1.000  C
  C27      1.0000 0.46470  0.97060  0.97060  Biso   1.000  C
  C28      1.0000 0.59400  0.97480  0.97480  Biso   1.000  C
  C29      1.0000 0.88870  0.88870  0.60990  Biso   1.000  C
  C30      1.0000 0.94610  0.94610  0.55600  Biso   1.000  C
  C31      1.0000 0.97060  0.97060  0.46470  Biso   1.000  C
  C32      1.0000 0.97480  0.97480  0.59400  Biso   1.000  C
  C33      1.0000 0.88870  0.60990  0.88870  Biso   1.000  C
  C34      1.0000 0.94610  0.55600  0.94610  Biso   1.000  C
  C35      1.0000 0.97060  0.46470  0.97060  Biso   1.000  C
  C36      1.0000 0.97480  0.59400  0.97480  Biso   1.000  C
  C37      1.0000 0.11170  0.38940  0.38940  Biso   1.000  C
  C38      1.0000 0.05990  0.44245  0.44245  Biso   1.000  C
  C39      1.0000 0.38940  0.11170  0.38940  Biso   1.000  C
  C40      1.0000 0.44245  0.05990  0.44245  Biso   1.000  C
  C41      1.0000 0.38940  0.38940  0.11170  Biso   1.000  C
  C42      1.0000 0.44245  0.44245  0.05990  Biso   1.000  C
  C43      1.0000 0.61060  0.88830  0.61060  Biso   1.000  C
  C44      1.0000 0.55755  0.94010  0.55755  Biso   1.000  C
  C45      1.0000 0.88830  0.61060  0.61060  Biso   1.000  C
  C46      1.0000 0.94010  0.55755  0.55755  Biso   1.000  C
  C47      1.0000 0.61060  0.61060  0.88830  Biso   1.000  C
  C48      1.0000 0.55755  0.55755  0.94010  Biso   1.000  C
  O1       1.0000 0.13529  0.42759  0.30119  Biso   1.000  O
  O2       1.0000 0.30119  0.13529  0.42759  Biso   1.000  O
  O3       1.0000 0.42759  0.30119  0.13529  Biso   1.000  O
  O4       1.0000 0.57241  0.86471  0.69881  Biso   1.000  O
  O5       1.0000 0.86471  0.69881  0.57241  Biso   1.000  O
  O6       1.0000 0.69881  0.57241  0.86471  Biso   1.000  O
  O7       1.0000 0.86471  0.57241  0.69881  Biso   1.000  O
  O8       1.0000 0.69881  0.86471  0.57241  Biso   1.000  O
  O9       1.0000 0.57241  0.69881  0.86471  Biso   1.000  O
  O10      1.0000 0.42759  0.13529  0.30119  Biso   1.000  O
  O11      1.0000 0.13529  0.30119  0.42759  Biso   1.000  O
  O12      1.0000 0.30119  0.42759  0.13529  Biso   1.000  O
  O13      1.0000 0.25153  0.25153  0.25153  Biso   1.000  O
  O14      1.0000 0.74847  0.74847  0.74847  Biso   1.000  O
  O15      1.0000 0.13410  0.30220  0.13410  Biso   1.000  O
  O16      1.0000 0.13380  0.42820  0.13380  Biso   1.000  O
  O17      1.0000 0.13410  0.13410  0.30220  Biso   1.000  O
  O18      1.0000 0.13380  0.13380  0.42820  Biso   1.000  O
  O19      1.0000 0.30220  0.13410  0.13410  Biso   1.000  O
  O20      1.0000 0.42820  0.13380  0.13380  Biso   1.000  O
  O21      1.0000 0.69780  0.86590  0.86590  Biso   1.000  O
  O22      1.0000 0.57180  0.86620  0.86620  Biso   1.000  O
  O23      1.0000 0.86590  0.86590  0.69780  Biso   1.000  O
  O24      1.0000 0.86620  0.86620  0.57180  Biso   1.000  O
  O25      1.0000 0.86590  0.69780  0.86590  Biso   1.000  O
  O26      1.0000 0.86620  0.57180  0.86620  Biso   1.000  O
  Zn9      1.0000 0.00000  0.00000  0.00000  Biso   1.000  Zn
  Zn10     1.0000 0.58782  0.58782  0.58782  Biso   1.000  Zn
  Zn11     1.0000 0.00068  0.17343  0.00068  Biso   1.000  Zn
  Zn12     1.0000 0.00068  0.00068  0.17343  Biso   1.000  Zn
  Zn13     1.0000 0.17343  0.00068  0.00068  Biso   1.000  Zn
  Zn14     1.0000 0.41439  0.58714  0.58714  Biso   1.000  Zn
  Zn15     1.0000 0.58714  0.58714  0.41439  Biso   1.000  Zn
  Zn16     1.0000 0.58714  0.41439  0.58714  Biso   1.000  Zn
  H25      1.0000 0.83651  0.13741  0.35921  Biso   1.000  H
  H26      1.0000 0.35921  0.83651  0.13741  Biso   1.000  H
  H27      1.0000 0.13741  0.35921  0.83651  Biso   1.000  H
  H28      1.0000 0.45041  0.75131  0.22861  Biso   1.000  H
  H29      1.0000 0.75131  0.22861  0.45041  Biso   1.000  H
  H30      1.0000 0.22861  0.45041  0.75131  Biso   1.000  H
  H31      1.0000 0.75131  0.45041  0.22861  Biso   1.000  H
  H32      1.0000 0.22861  0.75131  0.45041  Biso   1.000  H
  H33      1.0000 0.45041  0.22861  0.75131  Biso   1.000  H
  H34      1.0000 0.13741  0.83651  0.35921  Biso   1.000  H
  H35      1.0000 0.83651  0.35921  0.13741  Biso   1.000  H
  H36      1.0000 0.35921  0.13741  0.83651  Biso   1.000  H
  H37      1.0000 0.84271  0.35251  0.84271  Biso   1.000  H
  H38      1.0000 0.83561  0.13841  0.83561  Biso   1.000  H
  H39      1.0000 0.84271  0.84271  0.35251  Biso   1.000  H
  H40      1.0000 0.83561  0.83561  0.13841  Biso   1.000  H
  H41      1.0000 0.35251  0.84271  0.84271  Biso   1.000  H
  H42      1.0000 0.13841  0.83561  0.83561  Biso   1.000  H
  H43      1.0000 0.23531  0.74511  0.74511  Biso   1.000  H
  H44      1.0000 0.44941  0.75221  0.75221  Biso   1.000  H
  H45      1.0000 0.74511  0.74511  0.23531  Biso   1.000  H
  H46      1.0000 0.75221  0.75221  0.44941  Biso   1.000  H
  H47      1.0000 0.74511  0.23531  0.74511  Biso   1.000  H
  H48      1.0000 0.75221  0.44941  0.75221  Biso   1.000  H
  C49      1.0000 0.82161  0.19901  0.33261  Biso   1.000  C
  C50      1.0000 0.33261  0.82161  0.19901  Biso   1.000  C
  C51      1.0000 0.19901  0.33261  0.82161  Biso   1.000  C
  C52      1.0000 0.38881  0.76621  0.25521  Biso   1.000  C
  C53      1.0000 0.76621  0.25521  0.38881  Biso   1.000  C
  C54      1.0000 0.25521  0.38881  0.76621  Biso   1.000  C
  C55      1.0000 0.76621  0.38881  0.25521  Biso   1.000  C
  C56      1.0000 0.25521  0.76621  0.38881  Biso   1.000  C
  C57      1.0000 0.38881  0.25521  0.76621  Biso   1.000  C
  C58      1.0000 0.19901  0.82161  0.33261  Biso   1.000  C
  C59      1.0000 0.82161  0.33261  0.19901  Biso   1.000  C
  C60      1.0000 0.33261  0.19901  0.82161  Biso   1.000  C
  C61      1.0000 0.90521  0.18401  0.90521  Biso   1.000  C
  C62      1.0000 0.84781  0.23791  0.84781  Biso   1.000  C
  C63      1.0000 0.82331  0.32921  0.82331  Biso   1.000  C
  C64      1.0000 0.81911  0.19991  0.81911  Biso   1.000  C
  C65      1.0000 0.90521  0.90521  0.18401  Biso   1.000  C
  C66      1.0000 0.84781  0.84781  0.23791  Biso   1.000  C
  C67      1.0000 0.82331  0.82331  0.32921  Biso   1.000  C
  C68      1.0000 0.81911  0.81911  0.19991  Biso   1.000  C
  C69      1.0000 0.18401  0.90521  0.90521  Biso   1.000  C
  C70      1.0000 0.23791  0.84781  0.84781  Biso   1.000  C
  C71      1.0000 0.32921  0.82331  0.82331  Biso   1.000  C
  C72      1.0000 0.19991  0.81911  0.81911  Biso   1.000  C
  C73      1.0000 0.40381  0.68261  0.68261  Biso   1.000  C
  C74      1.0000 0.34991  0.74001  0.74001  Biso   1.000  C
  C75      1.0000 0.25861  0.76451  0.76451  Biso   1.000  C
  C76      1.0000 0.38791  0.76871  0.76871  Biso   1.000  C
  C77      1.0000 0.68261  0.68261  0.40381  Biso   1.000  C
  C78      1.0000 0.74001  0.74001  0.34991  Biso   1.000  C
  C79      1.0000 0.76451  0.76451  0.25861  Biso   1.000  C
  C80      1.0000 0.76871  0.76871  0.38791  Biso   1.000  C
  C81      1.0000 0.68261  0.40381  0.68261  Biso   1.000  C
  C82      1.0000 0.74001  0.34991  0.74001  Biso   1.000  C
  C83      1.0000 0.76451  0.25861  0.76451  Biso   1.000  C
  C84      1.0000 0.76871  0.38791  0.76871  Biso   1.000  C
  C85      1.0000 0.90561  0.18331  0.18331  Biso   1.000  C
  C86      1.0000 0.85381  0.23636  0.23636  Biso   1.000  C
  C87      1.0000 0.18331  0.90561  0.18331  Biso   1.000  C
  C88      1.0000 0.23636  0.85381  0.23636  Biso   1.000  C
  C89      1.0000 0.18331  0.18331  0.90561  Biso   1.000  C
  C90      1.0000 0.23636  0.23636  0.85381  Biso   1.000  C
  C91      1.0000 0.40451  0.68221  0.40451  Biso   1.000  C
  C92      1.0000 0.35146  0.73401  0.35146  Biso   1.000  C
  C93      1.0000 0.68221  0.40451  0.40451  Biso   1.000  C
  C94      1.0000 0.73401  0.35146  0.35146  Biso   1.000  C
  C95      1.0000 0.40451  0.40451  0.68221  Biso   1.000  C
  C96      1.0000 0.35146  0.35146  0.73401  Biso   1.000  C
  O27      1.0000 0.92920  0.22150  0.09510  Biso   1.000  O
  O28      1.0000 0.09510  0.92920  0.22150  Biso   1.000  O
  O29      1.0000 0.22150  0.09510  0.92920  Biso   1.000  O
  O30      1.0000 0.36632  0.65862  0.49272  Biso   1.000  O
  O31      1.0000 0.65862  0.49272  0.36632  Biso   1.000  O
  O32      1.0000 0.49272  0.36632  0.65862  Biso   1.000  O
  O33      1.0000 0.65862  0.36632  0.49272  Biso   1.000  O
  O34      1.0000 0.49272  0.65862  0.36632  Biso   1.000  O
  O35      1.0000 0.36632  0.49272  0.65862  Biso   1.000  O
  O36      1.0000 0.22150  0.92920  0.09510  Biso   1.000  O
  O37      1.0000 0.92920  0.09510  0.22150  Biso   1.000  O
  O38      1.0000 0.09510  0.22150  0.92920  Biso   1.000  O
  O39      1.0000 0.04544  0.04544  0.04544  Biso   1.000  O
  O40      1.0000 0.54238  0.54238  0.54238  Biso   1.000  O
  O41      1.0000 0.92801  0.09611  0.92801  Biso   1.000  O
  O42      1.0000 0.92771  0.22211  0.92771  Biso   1.000  O
  O43      1.0000 0.92801  0.92801  0.09611  Biso   1.000  O
  O44      1.0000 0.92771  0.92771  0.22211  Biso   1.000  O
  O45      1.0000 0.09611  0.92801  0.92801  Biso   1.000  O
  O46      1.0000 0.22211  0.92771  0.92771  Biso   1.000  O
  O47      1.0000 0.49171  0.65981  0.65981  Biso   1.000  O
  O48      1.0000 0.36571  0.66011  0.66011  Biso   1.000  O
  O49      1.0000 0.65981  0.65981  0.49171  Biso   1.000  O
  O50      1.0000 0.66011  0.66011  0.36571  Biso   1.000  O
  O51      1.0000 0.65981  0.49171  0.65981  Biso   1.000  O
