data_image0
_cell_length_a       15.1832
_cell_length_b       15.3308
_cell_length_c       24.7499
_cell_angle_alpha    90
_cell_angle_beta     90
_cell_angle_gamma    111.338

_symmetry_space_group_name_H-M    "P 1"
_symmetry_int_tables_number       1

loop_
  _symmetry_equiv_pos_as_xyz
  'x, y, z'

loop_
  _atom_site_label
  _atom_site_occupancy
  _atom_site_fract_x
  _atom_site_fract_y
  _atom_site_fract_z
  _atom_site_thermal_displace_type
  _atom_site_B_iso_or_equiv
  _atom_site_type_symbol
  Co1      1.0000 0.39763  0.60971  0.02056  Biso   1.000  Co
  Co2      1.0000 0.39763  0.60971  0.47944  Biso   1.000  Co
  Co3      1.0000 0.60237  0.39029  0.97944  Biso   1.000  Co
  Co4      1.0000 0.60237  0.39029  0.52056  Biso   1.000  Co
  H1       1.0000 0.47520  0.23090  0.04230  Biso   1.000  H
  H2       1.0000 0.53950  0.67980  0.29350  Biso   1.000  H
  H3       1.0000 0.75140  0.31060  0.48550  Biso   1.000  H
  H4       1.0000 0.73840  0.44360  0.79000  Biso   1.000  H
  H5       1.0000 0.46800  0.33440  0.61440  Biso   1.000  H
  H6       1.0000 0.37420  0.78040  0.08420  Biso   1.000  H
  H7       1.0000 0.62580  0.21960  0.91580  Biso   1.000  H
  H8       1.0000 0.58860  0.06540  0.92710  Biso   1.000  H
  H9       1.0000 0.94410  0.60420  0.53370  Biso   1.000  H
  H10      1.0000 0.05590  0.39580  0.03370  Biso   1.000  H
  H11      1.0000 0.62580  0.21960  0.58420  Biso   1.000  H
  H12      1.0000 0.52480  0.76910  0.95770  Biso   1.000  H
  H13      1.0000 0.56340  0.92510  0.55570  Biso   1.000  H
  H14      1.0000 0.78330  0.55610  0.54000  Biso   1.000  H
  H15      1.0000 0.73840  0.44360  0.71000  Biso   1.000  H
  H16      1.0000 0.24860  0.68940  0.98550  Biso   1.000  H
  H17      1.0000 0.37420  0.78040  0.41580  Biso   1.000  H
  H18      1.0000 0.41140  0.93460  0.42710  Biso   1.000  H
  H19      1.0000 0.46050  0.32020  0.70650  Biso   1.000  H
  H20      1.0000 0.47520  0.23090  0.45770  Biso   1.000  H
  H21      1.0000 0.73580  0.42950  0.61740  Biso   1.000  H
  H22      1.0000 0.08650  0.64540  0.52830  Biso   1.000  H
  H23      1.0000 0.75140  0.31060  0.01450  Biso   1.000  H
  H24      1.0000 0.94410  0.60420  0.96630  Biso   1.000  H
  H25      1.0000 0.53200  0.66560  0.11440  Biso   1.000  H
  H26      1.0000 0.26420  0.57050  0.11740  Biso   1.000  H
  H27      1.0000 0.91350  0.35460  0.02830  Biso   1.000  H
  H28      1.0000 0.56340  0.92510  0.94430  Biso   1.000  H
  H29      1.0000 0.21670  0.44390  0.46000  Biso   1.000  H
  H30      1.0000 0.52480  0.76910  0.54230  Biso   1.000  H
  H31      1.0000 0.53950  0.67980  0.20650  Biso   1.000  H
  H32      1.0000 0.21670  0.44390  0.04000  Biso   1.000  H
  H33      1.0000 0.73580  0.42950  0.88260  Biso   1.000  H
  H34      1.0000 0.53200  0.66560  0.38560  Biso   1.000  H
  H35      1.0000 0.91350  0.35460  0.47170  Biso   1.000  H
  H36      1.0000 0.46800  0.33440  0.88560  Biso   1.000  H
  H37      1.0000 0.26160  0.55640  0.29000  Biso   1.000  H
  H38      1.0000 0.58860  0.06540  0.57290  Biso   1.000  H
  H39      1.0000 0.26160  0.55640  0.21000  Biso   1.000  H
  H40      1.0000 0.46050  0.32020  0.79350  Biso   1.000  H
  H41      1.0000 0.08650  0.64540  0.97170  Biso   1.000  H
  H42      1.0000 0.43660  0.07490  0.05570  Biso   1.000  H
  H43      1.0000 0.43660  0.07490  0.44430  Biso   1.000  H
  H44      1.0000 0.78330  0.55610  0.96000  Biso   1.000  H
  H45      1.0000 0.41140  0.93460  0.07290  Biso   1.000  H
  H46      1.0000 0.24860  0.68940  0.51450  Biso   1.000  H
  H47      1.0000 0.05590  0.39580  0.46630  Biso   1.000  H
  H48      1.0000 0.26420  0.57050  0.38260  Biso   1.000  H
  C1       1.0000 0.52380  0.89660  0.97300  Biso   1.000  C
  C2       1.0000 0.56540  0.09770  0.54840  Biso   1.000  C
  C3       1.0000 0.52430  0.35490  0.86620  Biso   1.000  C
  C4       1.0000 0.19040  0.48610  0.47270  Biso   1.000  C
  C5       1.0000 0.47570  0.64510  0.36620  Biso   1.000  C
  C6       1.0000 0.45330  0.45550  0.00180  Biso   1.000  C
  C7       1.0000 0.49110  0.95130  0.00600  Biso   1.000  C
  C8       1.0000 0.88900  0.39640  0.48690  Biso   1.000  C
  C9       1.0000 0.49970  0.19770  0.48090  Biso   1.000  C
  C10      1.0000 0.49110  0.95130  0.49400  Biso   1.000  C
  C11      1.0000 0.43460  0.90230  0.04840  Biso   1.000  C
  C12      1.0000 0.31880  0.58350  0.19200  Biso   1.000  C
  C13      1.0000 0.41230  0.80950  0.05510  Biso   1.000  C
  C14      1.0000 0.40140  0.62060  0.22010  Biso   1.000  C
  C15      1.0000 0.54670  0.54450  0.99820  Biso   1.000  C
  C16      1.0000 0.05220  0.51500  0.00240  Biso   1.000  C
  C17      1.0000 0.68120  0.41650  0.80800  Biso   1.000  C
  C18      1.0000 0.68120  0.41650  0.69200  Biso   1.000  C
  C19      1.0000 0.88900  0.39640  0.01310  Biso   1.000  C
  C20      1.0000 0.19040  0.48610  0.02730  Biso   1.000  C
  C21      1.0000 0.48100  0.65260  0.18980  Biso   1.000  C
  C22      1.0000 0.51900  0.34740  0.81020  Biso   1.000  C
  C23      1.0000 0.67840  0.41300  0.63560  Biso   1.000  C
  C24      1.0000 0.56540  0.09770  0.95160  Biso   1.000  C
  C25      1.0000 0.80960  0.51390  0.52730  Biso   1.000  C
  C26      1.0000 0.50890  0.04870  0.99400  Biso   1.000  C
  C27      1.0000 0.41230  0.80950  0.44490  Biso   1.000  C
  C28      1.0000 0.79080  0.37100  0.49470  Biso   1.000  C
  C29      1.0000 0.05220  0.51500  0.49760  Biso   1.000  C
  C30      1.0000 0.20920  0.62900  0.99470  Biso   1.000  C
  C31      1.0000 0.90670  0.54400  0.97720  Biso   1.000  C
  C32      1.0000 0.47620  0.10340  0.47300  Biso   1.000  C
  C33      1.0000 0.40140  0.62060  0.27990  Biso   1.000  C
  C34      1.0000 0.90670  0.54400  0.52280  Biso   1.000  C
  C35      1.0000 0.67840  0.41300  0.86440  Biso   1.000  C
  C36      1.0000 0.43460  0.90230  0.45160  Biso   1.000  C
  C37      1.0000 0.20920  0.62900  0.50530  Biso   1.000  C
  C38      1.0000 0.50030  0.80230  0.98090  Biso   1.000  C
  C39      1.0000 0.50030  0.80230  0.51910  Biso   1.000  C
  C40      1.0000 0.79080  0.37100  0.00530  Biso   1.000  C
  C41      1.0000 0.45330  0.45550  0.49820  Biso   1.000  C
  C42      1.0000 0.31880  0.58350  0.30800  Biso   1.000  C
  C43      1.0000 0.32160  0.58700  0.13560  Biso   1.000  C
  C44      1.0000 0.49970  0.19770  0.01910  Biso   1.000  C
  C45      1.0000 0.58770  0.19050  0.94490  Biso   1.000  C
  C46      1.0000 0.11100  0.60360  0.98690  Biso   1.000  C
  C47      1.0000 0.80960  0.51390  0.97270  Biso   1.000  C
  C48      1.0000 0.58770  0.19050  0.55510  Biso   1.000  C
  C49      1.0000 0.94780  0.48500  0.50240  Biso   1.000  C
  C50      1.0000 0.09330  0.45600  0.02280  Biso   1.000  C
  C51      1.0000 0.32160  0.58700  0.36440  Biso   1.000  C
  C52      1.0000 0.50890  0.04870  0.50600  Biso   1.000  C
  C53      1.0000 0.09330  0.45600  0.47720  Biso   1.000  C
  C54      1.0000 0.59860  0.37940  0.72010  Biso   1.000  C
  C55      1.0000 0.59860  0.37940  0.77990  Biso   1.000  C
  C56      1.0000 0.52430  0.35490  0.63380  Biso   1.000  C
  C57      1.0000 0.47570  0.64510  0.13380  Biso   1.000  C
  C58      1.0000 0.54670  0.54450  0.50180  Biso   1.000  C
  C59      1.0000 0.47620  0.10340  0.02700  Biso   1.000  C
  C60      1.0000 0.11100  0.60360  0.51310  Biso   1.000  C
  C61      1.0000 0.51900  0.34740  0.68980  Biso   1.000  C
  C62      1.0000 0.48100  0.65260  0.31020  Biso   1.000  C
  C63      1.0000 0.94780  0.48500  0.99760  Biso   1.000  C
  C64      1.0000 0.52380  0.89660  0.52700  Biso   1.000  C
  N1       1.0000 0.39660  0.61100  0.10690  Biso   1.000  N
  N2       1.0000 0.55730  0.24370  0.97850  Biso   1.000  N
  N3       1.0000 0.55730  0.24370  0.52150  Biso   1.000  N
  N4       1.0000 0.44270  0.75630  0.47850  Biso   1.000  N
  N5       1.0000 0.75200  0.42850  0.98560  Biso   1.000  N
  N6       1.0000 0.24800  0.57150  0.01440  Biso   1.000  N
  N7       1.0000 0.60340  0.38900  0.60690  Biso   1.000  N
  N8       1.0000 0.44270  0.75630  0.02150  Biso   1.000  N
  N9       1.0000 0.60340  0.38900  0.89310  Biso   1.000  N
  N10      1.0000 0.75200  0.42850  0.51440  Biso   1.000  N
  N11      1.0000 0.39660  0.61100  0.39310  Biso   1.000  N
  N12      1.0000 0.24800  0.57150  0.48560  Biso   1.000  N
  O1       1.0000 0.38010  0.46730  0.48380  Biso   1.000  O
  O2       1.0000 0.46130  0.37950  0.51130  Biso   1.000  O
  O3       1.0000 0.38010  0.46730  0.01620  Biso   1.000  O
  O4       1.0000 0.53870  0.62050  0.01130  Biso   1.000  O
  O5       1.0000 0.46130  0.37950  0.98870  Biso   1.000  O
  O6       1.0000 0.53870  0.62050  0.48870  Biso   1.000  O
  O7       1.0000 0.61990  0.53270  0.51620  Biso   1.000  O
  O8       1.0000 0.61990  0.53270  0.98380  Biso   1.000  O
  Co5      1.0000 0.31491  0.14006  0.80808  Biso   1.000  Co
  Co6      1.0000 0.31491  0.14006  0.26696  Biso   1.000  Co
  Co7      1.0000 0.51965  0.92064  0.76696  Biso   1.000  Co
  Co8      1.0000 0.51965  0.92064  0.30808  Biso   1.000  Co
  H49      1.0000 0.39248  0.76125  0.82982  Biso   1.000  H
  H50      1.0000 0.45678  0.21015  0.08102  Biso   1.000  H
  H51      1.0000 0.66868  0.84095  0.27302  Biso   1.000  H
  H52      1.0000 0.65568  0.97395  0.57752  Biso   1.000  H
  H53      1.0000 0.38528  0.86475  0.40192  Biso   1.000  H
  H54      1.0000 0.29148  0.31075  0.87172  Biso   1.000  H
  H55      1.0000 0.54308  0.74995  0.70332  Biso   1.000  H
  H56      1.0000 0.50588  0.59575  0.71462  Biso   1.000  H
  H57      1.0000 0.86138  0.13455  0.32122  Biso   1.000  H
  H58      1.0000 0.97318  0.92615  0.82122  Biso   1.000  H
  H59      1.0000 0.54308  0.74995  0.37172  Biso   1.000  H
  H60      1.0000 0.44208  0.29945  0.74522  Biso   1.000  H
  H61      1.0000 0.48068  0.45545  0.34322  Biso   1.000  H
  H62      1.0000 0.70058  0.08645  0.32752  Biso   1.000  H
  H63      1.0000 0.65568  0.97395  0.49752  Biso   1.000  H
  H64      1.0000 0.16588  0.21975  0.77302  Biso   1.000  H
  H65      1.0000 0.29148  0.31075  0.20332  Biso   1.000  H
  H66      1.0000 0.32868  0.46495  0.21462  Biso   1.000  H
  H67      1.0000 0.37778  0.85055  0.49402  Biso   1.000  H
  H68      1.0000 0.39248  0.76125  0.24522  Biso   1.000  H
  H69      1.0000 0.65308  0.95985  0.40492  Biso   1.000  H
  H70      1.0000 0.00378  0.17575  0.31582  Biso   1.000  H
  H71      1.0000 0.66868  0.84095  0.80202  Biso   1.000  H
  H72      1.0000 0.86138  0.13455  0.75382  Biso   1.000  H
  H73      1.0000 0.44928  0.19595  0.90192  Biso   1.000  H
  H74      1.0000 0.18148  0.10085  0.90492  Biso   1.000  H
  H75      1.0000 0.83078  0.88495  0.81582  Biso   1.000  H
  H76      1.0000 0.48068  0.45545  0.73182  Biso   1.000  H
  H77      1.0000 0.13398  0.97425  0.24752  Biso   1.000  H
  H78      1.0000 0.44208  0.29945  0.32982  Biso   1.000  H
  H79      1.0000 0.45678  0.21015  0.99402  Biso   1.000  H
  H80      1.0000 0.13398  0.97425  0.82752  Biso   1.000  H
  H81      1.0000 0.65308  0.95985  0.67012  Biso   1.000  H
  H82      1.0000 0.44928  0.19595  0.17312  Biso   1.000  H
  H83      1.0000 0.83078  0.88495  0.25922  Biso   1.000  H
  H84      1.0000 0.38528  0.86475  0.67312  Biso   1.000  H
  H85      1.0000 0.17888  0.08675  0.07752  Biso   1.000  H
  H86      1.0000 0.50588  0.59575  0.36042  Biso   1.000  H
  H87      1.0000 0.17888  0.08675  0.99752  Biso   1.000  H
  H88      1.0000 0.37778  0.85055  0.58102  Biso   1.000  H
  H89      1.0000 0.00378  0.17575  0.75922  Biso   1.000  H
  H90      1.0000 0.35388  0.60525  0.84322  Biso   1.000  H
  H91      1.0000 0.35388  0.60525  0.23182  Biso   1.000  H
  H92      1.0000 0.70058  0.08645  0.74752  Biso   1.000  H
  H93      1.0000 0.32868  0.46495  0.86042  Biso   1.000  H
  H94      1.0000 0.16588  0.21975  0.30202  Biso   1.000  H
  H95      1.0000 0.97318  0.92615  0.25382  Biso   1.000  H
  H96      1.0000 0.18148  0.10085  0.17012  Biso   1.000  H
  C65      1.0000 0.44108  0.42695  0.76052  Biso   1.000  C
  C66      1.0000 0.48268  0.62805  0.33592  Biso   1.000  C
  C67      1.0000 0.44158  0.88525  0.65372  Biso   1.000  C
  C68      1.0000 0.10768  0.01645  0.26022  Biso   1.000  C
  C69      1.0000 0.39298  0.17545  0.15372  Biso   1.000  C
  C70      1.0000 0.37058  0.98585  0.78932  Biso   1.000  C
  C71      1.0000 0.40838  0.48165  0.79352  Biso   1.000  C
  C72      1.0000 0.80628  0.92675  0.27442  Biso   1.000  C
  C73      1.0000 0.41698  0.72805  0.26842  Biso   1.000  C
  C74      1.0000 0.40838  0.48165  0.28152  Biso   1.000  C
  C75      1.0000 0.35188  0.43265  0.83592  Biso   1.000  C
  C76      1.0000 0.23608  0.11385  0.97952  Biso   1.000  C
  C77      1.0000 0.32958  0.33985  0.84262  Biso   1.000  C
  C78      1.0000 0.31868  0.15095  0.00762  Biso   1.000  C
  C79      1.0000 0.46398  0.07485  0.78572  Biso   1.000  C
  C80      1.0000 0.96948  0.04535  0.78992  Biso   1.000  C
  C81      1.0000 0.59848  0.94685  0.59552  Biso   1.000  C
  C82      1.0000 0.59848  0.94685  0.47952  Biso   1.000  C
  C83      1.0000 0.80628  0.92675  0.80062  Biso   1.000  C
  C84      1.0000 0.10768  0.01645  0.81482  Biso   1.000  C
  C85      1.0000 0.39828  0.18295  0.97732  Biso   1.000  C
  C86      1.0000 0.43628  0.87775  0.59772  Biso   1.000  C
  C87      1.0000 0.59568  0.94335  0.42312  Biso   1.000  C
  C88      1.0000 0.48268  0.62805  0.73912  Biso   1.000  C
  C89      1.0000 0.72688  0.04425  0.31482  Biso   1.000  C
  C90      1.0000 0.42618  0.57905  0.78152  Biso   1.000  C
  C91      1.0000 0.32958  0.33985  0.23242  Biso   1.000  C
  C92      1.0000 0.70808  0.90135  0.28222  Biso   1.000  C
  C93      1.0000 0.96948  0.04535  0.28512  Biso   1.000  C
  C94      1.0000 0.12648  0.15935  0.78222  Biso   1.000  C
  C95      1.0000 0.82398  0.07435  0.76472  Biso   1.000  C
  C96      1.0000 0.39348  0.63375  0.26052  Biso   1.000  C
  C97      1.0000 0.31868  0.15095  0.06742  Biso   1.000  C
  C98      1.0000 0.82398  0.07435  0.31032  Biso   1.000  C
  C99      1.0000 0.59568  0.94335  0.65192  Biso   1.000  C
  C100     1.0000 0.35188  0.43265  0.23912  Biso   1.000  C
  C101     1.0000 0.12648  0.15935  0.29282  Biso   1.000  C
  C102     1.0000 0.41758  0.33265  0.76842  Biso   1.000  C
  C103     1.0000 0.41758  0.33265  0.30662  Biso   1.000  C
  C104     1.0000 0.70808  0.90135  0.79282  Biso   1.000  C
  C105     1.0000 0.37058  0.98585  0.28572  Biso   1.000  C
  C106     1.0000 0.23608  0.11385  0.09552  Biso   1.000  C
  C107     1.0000 0.23888  0.11735  0.92312  Biso   1.000  C
  C108     1.0000 0.41698  0.72805  0.80662  Biso   1.000  C
  C109     1.0000 0.50498  0.72085  0.73242  Biso   1.000  C
  C110     1.0000 0.02828  0.13395  0.77442  Biso   1.000  C
  C111     1.0000 0.72688  0.04425  0.76022  Biso   1.000  C
  C112     1.0000 0.50498  0.72085  0.34262  Biso   1.000  C
  C113     1.0000 0.86508  0.01535  0.28992  Biso   1.000  C
  C114     1.0000 0.01058  0.98635  0.81032  Biso   1.000  C
  C115     1.0000 0.23888  0.11735  0.15192  Biso   1.000  C
  C116     1.0000 0.42618  0.57905  0.29352  Biso   1.000  C
  C117     1.0000 0.01058  0.98635  0.26472  Biso   1.000  C
  C118     1.0000 0.51588  0.90975  0.50762  Biso   1.000  C
  C119     1.0000 0.51588  0.90975  0.56742  Biso   1.000  C
  C120     1.0000 0.44158  0.88525  0.42132  Biso   1.000  C
  C121     1.0000 0.39298  0.17545  0.92132  Biso   1.000  C
  C122     1.0000 0.46398  0.07485  0.28932  Biso   1.000  C
  C123     1.0000 0.39348  0.63375  0.81452  Biso   1.000  C
  C124     1.0000 0.02828  0.13395  0.30062  Biso   1.000  C
  C125     1.0000 0.43628  0.87775  0.47732  Biso   1.000  C
  C126     1.0000 0.39828  0.18295  0.09772  Biso   1.000  C
  C127     1.0000 0.86508  0.01535  0.78512  Biso   1.000  C
  C128     1.0000 0.44108  0.42695  0.31452  Biso   1.000  C
  N13      1.0000 0.31388  0.14135  0.89442  Biso   1.000  N
  N14      1.0000 0.47458  0.77405  0.76602  Biso   1.000  N
  N15      1.0000 0.47458  0.77405  0.30902  Biso   1.000  N
  N16      1.0000 0.35998  0.28665  0.26602  Biso   1.000  N
  N17      1.0000 0.66928  0.95885  0.77312  Biso   1.000  N
  N18      1.0000 0.16528  0.10185  0.80192  Biso   1.000  N
  N19      1.0000 0.52068  0.91935  0.39442  Biso   1.000  N
  N20      1.0000 0.35998  0.28665  0.80902  Biso   1.000  N
  N21      1.0000 0.52068  0.91935  0.68062  Biso   1.000  N
  N22      1.0000 0.66928  0.95885  0.30192  Biso   1.000  N
  N23      1.0000 0.31388  0.14135  0.18062  Biso   1.000  N
  N24      1.0000 0.16528  0.10185  0.27312  Biso   1.000  N
  O9       1.0000 0.29738  0.99765  0.27132  Biso   1.000  O
  O10      1.0000 0.37858  0.90985  0.29882  Biso   1.000  O
  O11      1.0000 0.29738  0.99765  0.80372  Biso   1.000  O
  O12      1.0000 0.45598  0.15085  0.79882  Biso   1.000  O
  O13      1.0000 0.37858  0.90985  0.77622  Biso   1.000  O
  O14      1.0000 0.45598  0.15085  0.27622  Biso   1.000  O
  O15      1.0000 0.53718  0.06305  0.30372  Biso   1.000  O
