data_image0
_cell_length_a       9.003
_cell_length_b       12.046
_cell_length_c       18.87
_cell_angle_alpha    90
_cell_angle_beta     96.23
_cell_angle_gamma    90

_symmetry_space_group_name_H-M    "P 1"
_symmetry_int_tables_number       1

loop_
  _symmetry_equiv_pos_as_xyz
  'x, y, z'

loop_
  _atom_site_label
  _atom_site_occupancy
  _atom_site_fract_x
  _atom_site_fract_y
  _atom_site_fract_z
  _atom_site_thermal_displace_type
  _atom_site_B_iso_or_equiv
  _atom_site_type_symbol
  Cd1      1.0000 0.75517  0.76037  0.59238  Biso   1.000  Cd
  Cd2      1.0000 0.73093  0.00281  0.84512  Biso   1.000  Cd
  Cd3      1.0000 0.24483  0.26037  0.90762  Biso   1.000  Cd
  Cd4      1.0000 0.26907  0.50281  0.65488  Biso   1.000  Cd
  Cd5      1.0000 0.24483  0.23963  0.40762  Biso   1.000  Cd
  Cd6      1.0000 0.26907  0.99719  0.15488  Biso   1.000  Cd
  Cd7      1.0000 0.75517  0.73963  0.09238  Biso   1.000  Cd
  Cd8      1.0000 0.73093  0.49719  0.34512  Biso   1.000  Cd
  C1       1.0000 0.73200  0.91280  0.74220  Biso   1.000  C
  C2       1.0000 0.74000  0.86840  0.69010  Biso   1.000  C
  C3       1.0000 0.75200  0.61630  0.43750  Biso   1.000  C
  C4       1.0000 0.75800  0.67090  0.48640  Biso   1.000  C
  C5       1.0000 0.07000  0.61500  0.64330  Biso   1.000  C
  C6       1.0000 0.96470  0.66610  0.63470  Biso   1.000  C
  C7       1.0000 0.47700  0.59870  0.64430  Biso   1.000  C
  C8       1.0000 0.58250  0.64410  0.63200  Biso   1.000  C
  C9       1.0000 0.26800  0.41280  0.75780  Biso   1.000  C
  C10      1.0000 0.26000  0.36840  0.80990  Biso   1.000  C
  C11      1.0000 0.24800  0.11630  0.06250  Biso   1.000  C
  C12      1.0000 0.24200  0.17090  0.01360  Biso   1.000  C
  C13      1.0000 0.93000  0.11500  0.85670  Biso   1.000  C
  C14      1.0000 0.03530  0.16610  0.86530  Biso   1.000  C
  C15      1.0000 0.52300  0.09870  0.85570  Biso   1.000  C
  C16      1.0000 0.41750  0.14410  0.86800  Biso   1.000  C
  C17      1.0000 0.26800  0.08720  0.25780  Biso   1.000  C
  C18      1.0000 0.26000  0.13160  0.30990  Biso   1.000  C
  C19      1.0000 0.24800  0.38370  0.56250  Biso   1.000  C
  C20      1.0000 0.24200  0.32910  0.51360  Biso   1.000  C
  C21      1.0000 0.93000  0.38500  0.35670  Biso   1.000  C
  C22      1.0000 0.03530  0.33390  0.36530  Biso   1.000  C
  C23      1.0000 0.52300  0.40130  0.35570  Biso   1.000  C
  C24      1.0000 0.41750  0.35590  0.36800  Biso   1.000  C
  C25      1.0000 0.73200  0.58720  0.24220  Biso   1.000  C
  C26      1.0000 0.74000  0.63160  0.19010  Biso   1.000  C
  C27      1.0000 0.75200  0.88370  0.93750  Biso   1.000  C
  C28      1.0000 0.75800  0.82910  0.98640  Biso   1.000  C
  C29      1.0000 0.07000  0.88500  0.14330  Biso   1.000  C
  C30      1.0000 0.96470  0.83390  0.13470  Biso   1.000  C
  C31      1.0000 0.47700  0.90130  0.14430  Biso   1.000  C
  C32      1.0000 0.58250  0.85590  0.13200  Biso   1.000  C
  Cd9      1.0000 0.35553  0.24905  0.58640  Biso   1.000  Cd
  Cd10     1.0000 0.33129  0.49149  0.83914  Biso   1.000  Cd
  Cd11     1.0000 0.84519  0.74905  0.90164  Biso   1.000  Cd
  Cd12     1.0000 0.86943  0.99149  0.64890  Biso   1.000  Cd
  Cd13     1.0000 0.84519  0.72831  0.40164  Biso   1.000  Cd
  Cd14     1.0000 0.86943  0.48587  0.14890  Biso   1.000  Cd
  Cd15     1.0000 0.35553  0.22831  0.08640  Biso   1.000  Cd
  Cd16     1.0000 0.33129  0.98587  0.33914  Biso   1.000  Cd
  C33      1.0000 0.33236  0.40148  0.73622  Biso   1.000  C
  C34      1.0000 0.34036  0.35708  0.68412  Biso   1.000  C
  C35      1.0000 0.35236  0.10498  0.43152  Biso   1.000  C
  C36      1.0000 0.35836  0.15958  0.48042  Biso   1.000  C
  C37      1.0000 0.67036  0.10368  0.63732  Biso   1.000  C
  C38      1.0000 0.56506  0.15478  0.62872  Biso   1.000  C
  C39      1.0000 0.07736  0.08738  0.63832  Biso   1.000  C
  C40      1.0000 0.18286  0.13278  0.62602  Biso   1.000  C
  C41      1.0000 0.86836  0.90148  0.75182  Biso   1.000  C
  C42      1.0000 0.86036  0.85708  0.80392  Biso   1.000  C
  C43      1.0000 0.84836  0.60498  0.05652  Biso   1.000  C
  C44      1.0000 0.84236  0.65958  0.00762  Biso   1.000  C
  C45      1.0000 0.53036  0.60368  0.85072  Biso   1.000  C
  C46      1.0000 0.63566  0.65478  0.85932  Biso   1.000  C
  C47      1.0000 0.12336  0.58738  0.84972  Biso   1.000  C
  C48      1.0000 0.01786  0.63278  0.86202  Biso   1.000  C
  C49      1.0000 0.86836  0.57588  0.25182  Biso   1.000  C
  C50      1.0000 0.86036  0.62028  0.30392  Biso   1.000  C
  C51      1.0000 0.84836  0.87238  0.55652  Biso   1.000  C
  C52      1.0000 0.84236  0.81778  0.50762  Biso   1.000  C
  C53      1.0000 0.53036  0.87368  0.35072  Biso   1.000  C
  C54      1.0000 0.63566  0.82258  0.35932  Biso   1.000  C
  C55      1.0000 0.12336  0.88998  0.34972  Biso   1.000  C
  C56      1.0000 0.01786  0.84458  0.36202  Biso   1.000  C
  C57      1.0000 0.33236  0.07588  0.23622  Biso   1.000  C
  C58      1.0000 0.34036  0.12028  0.18412  Biso   1.000  C
  C59      1.0000 0.35236  0.37238  0.93152  Biso   1.000  C
  C60      1.0000 0.35836  0.31778  0.98042  Biso   1.000  C
  C61      1.0000 0.67036  0.37368  0.13732  Biso   1.000  C
  C62      1.0000 0.56506  0.32258  0.12872  Biso   1.000  C
  C63      1.0000 0.07736  0.38998  0.13832  Biso   1.000  C
