data_image0
_cell_length_a       26.3256
_cell_length_b       26.3256
_cell_length_c       26.3256
_cell_angle_alpha    60
_cell_angle_beta     60
_cell_angle_gamma    60

_symmetry_space_group_name_H-M    "P 1"
_symmetry_int_tables_number       1

loop_
  _symmetry_equiv_pos_as_xyz
  'x, y, z'

loop_
  _atom_site_label
  _atom_site_occupancy
  _atom_site_fract_x
  _atom_site_fract_y
  _atom_site_fract_z
  _atom_site_thermal_displace_type
  _atom_site_B_iso_or_equiv
  _atom_site_type_symbol
  C1       1.0000 0.04840  0.95160  0.50000  Biso   1.000  C
  C2       1.0000 0.95160  0.04840  0.50000  Biso   1.000  C
  C3       1.0000 0.50000  0.50000  0.04840  Biso   1.000  C
  C4       1.0000 0.50000  0.50000  0.95160  Biso   1.000  C
  C5       1.0000 0.04840  0.50000  0.50000  Biso   1.000  C
  C6       1.0000 0.95160  0.50000  0.50000  Biso   1.000  C
  C7       1.0000 0.50000  0.04840  0.95160  Biso   1.000  C
  C8       1.0000 0.50000  0.95160  0.04840  Biso   1.000  C
  C9       1.0000 0.04840  0.50000  0.95160  Biso   1.000  C
  C10      1.0000 0.95160  0.50000  0.04840  Biso   1.000  C
  C11      1.0000 0.50000  0.95160  0.50000  Biso   1.000  C
  C12      1.0000 0.50000  0.04840  0.50000  Biso   1.000  C
  C13      1.0000 0.04320  0.13940  0.29580  Biso   1.000  C
  C14      1.0000 0.24200  0.00280  0.22120  Biso   1.000  C
  C15      1.0000 0.17730  0.96990  0.32390  Biso   1.000  C
  C16      1.0000 0.13940  0.04320  0.52160  Biso   1.000  C
  C17      1.0000 0.00280  0.24200  0.53400  Biso   1.000  C
  C18      1.0000 0.96990  0.17730  0.52890  Biso   1.000  C
  C19      1.0000 0.29580  0.52160  0.04320  Biso   1.000  C
  C20      1.0000 0.22120  0.53400  0.24200  Biso   1.000  C
  C21      1.0000 0.32390  0.52890  0.17730  Biso   1.000  C
  C22      1.0000 0.52160  0.29580  0.13940  Biso   1.000  C
  C23      1.0000 0.53400  0.22120  0.00280  Biso   1.000  C
  C24      1.0000 0.52890  0.32390  0.96990  Biso   1.000  C
  C25      1.0000 0.04320  0.29580  0.52160  Biso   1.000  C
  C26      1.0000 0.24200  0.22120  0.53400  Biso   1.000  C
  C27      1.0000 0.17730  0.32390  0.52890  Biso   1.000  C
  C28      1.0000 0.13940  0.52160  0.29580  Biso   1.000  C
  C29      1.0000 0.00280  0.53400  0.22120  Biso   1.000  C
  C30      1.0000 0.96990  0.52890  0.32390  Biso   1.000  C
  C31      1.0000 0.29580  0.04320  0.13940  Biso   1.000  C
  C32      1.0000 0.22120  0.24200  0.00280  Biso   1.000  C
  C33      1.0000 0.32390  0.17730  0.96990  Biso   1.000  C
  C34      1.0000 0.52160  0.13940  0.04320  Biso   1.000  C
  C35      1.0000 0.53400  0.00280  0.24200  Biso   1.000  C
  C36      1.0000 0.52890  0.96990  0.17730  Biso   1.000  C
  C37      1.0000 0.04320  0.52160  0.13940  Biso   1.000  C
  C38      1.0000 0.24200  0.53400  0.00280  Biso   1.000  C
  C39      1.0000 0.17730  0.52890  0.96990  Biso   1.000  C
  C40      1.0000 0.13940  0.29580  0.04320  Biso   1.000  C
  C41      1.0000 0.00280  0.22120  0.24200  Biso   1.000  C
  C42      1.0000 0.96990  0.32390  0.17730  Biso   1.000  C
  C43      1.0000 0.29580  0.13940  0.52160  Biso   1.000  C
  C44      1.0000 0.22120  0.00280  0.53400  Biso   1.000  C
  C45      1.0000 0.32390  0.96990  0.52890  Biso   1.000  C
  C46      1.0000 0.52160  0.04320  0.29580  Biso   1.000  C
  C47      1.0000 0.53400  0.24200  0.22120  Biso   1.000  C
  C48      1.0000 0.52890  0.17730  0.32390  Biso   1.000  C
  C49      1.0000 0.86060  0.95680  0.70420  Biso   1.000  C
  C50      1.0000 0.99720  0.75800  0.77880  Biso   1.000  C
  C51      1.0000 0.03010  0.82270  0.67610  Biso   1.000  C
  C52      1.0000 0.95680  0.86060  0.47840  Biso   1.000  C
  C53      1.0000 0.75800  0.99720  0.46600  Biso   1.000  C
  C54      1.0000 0.82270  0.03010  0.47110  Biso   1.000  C
  C55      1.0000 0.47840  0.70420  0.95680  Biso   1.000  C
  C56      1.0000 0.46600  0.77880  0.75800  Biso   1.000  C
  C57      1.0000 0.47110  0.67610  0.82270  Biso   1.000  C
  C58      1.0000 0.70420  0.47840  0.86060  Biso   1.000  C
  C59      1.0000 0.77880  0.46600  0.99720  Biso   1.000  C
  C60      1.0000 0.67610  0.47110  0.03010  Biso   1.000  C
  C61      1.0000 0.70420  0.95680  0.47840  Biso   1.000  C
  C62      1.0000 0.77880  0.75800  0.46600  Biso   1.000  C
  C63      1.0000 0.67610  0.82270  0.47110  Biso   1.000  C
  C64      1.0000 0.47840  0.86060  0.70420  Biso   1.000  C
  C65      1.0000 0.46600  0.99720  0.77880  Biso   1.000  C
  C66      1.0000 0.47110  0.03010  0.67610  Biso   1.000  C
  C67      1.0000 0.95680  0.70420  0.86060  Biso   1.000  C
  C68      1.0000 0.75800  0.77880  0.99720  Biso   1.000  C
  C69      1.0000 0.82270  0.67610  0.03010  Biso   1.000  C
  C70      1.0000 0.86060  0.47840  0.95680  Biso   1.000  C
  C71      1.0000 0.99720  0.46600  0.75800  Biso   1.000  C
  C72      1.0000 0.03010  0.47110  0.82270  Biso   1.000  C
  C73      1.0000 0.47840  0.95680  0.86060  Biso   1.000  C
  C74      1.0000 0.46600  0.75800  0.99720  Biso   1.000  C
  C75      1.0000 0.47110  0.82270  0.03010  Biso   1.000  C
  C76      1.0000 0.70420  0.86060  0.95680  Biso   1.000  C
  C77      1.0000 0.77880  0.99720  0.75800  Biso   1.000  C
  C78      1.0000 0.67610  0.03010  0.82270  Biso   1.000  C
  C79      1.0000 0.86060  0.70420  0.47840  Biso   1.000  C
  C80      1.0000 0.99720  0.77880  0.46600  Biso   1.000  C
  C81      1.0000 0.03010  0.67610  0.47110  Biso   1.000  C
  C82      1.0000 0.95680  0.47840  0.70420  Biso   1.000  C
  C83      1.0000 0.75800  0.46600  0.77880  Biso   1.000  C
  C84      1.0000 0.82270  0.47110  0.67610  Biso   1.000  C
  C85      1.0000 0.10458  0.05192  0.31982  Biso   1.000  C
  C86      1.0000 0.08378  0.11216  0.28084  Biso   1.000  C
  C87      1.0000 0.12183  0.13277  0.22041  Biso   1.000  C
  C88      1.0000 0.18147  0.09217  0.19733  Biso   1.000  C
  C89      1.0000 0.20219  0.03067  0.23629  Biso   1.000  C
  C90      1.0000 0.16348  0.01124  0.29732  Biso   1.000  C
  C91      1.0000 0.06480  0.03040  0.38440  Biso   1.000  C
  C92      1.0000 0.05192  0.10458  0.52368  Biso   1.000  C
  C93      1.0000 0.11216  0.08378  0.52322  Biso   1.000  C
  C94      1.0000 0.13277  0.12183  0.52499  Biso   1.000  C
  C95      1.0000 0.09217  0.18147  0.52903  Biso   1.000  C
  C96      1.0000 0.03067  0.20219  0.53085  Biso   1.000  C
  C97      1.0000 0.01124  0.16348  0.52796  Biso   1.000  C
  C98      1.0000 0.03040  0.06480  0.52040  Biso   1.000  C
  C99      1.0000 0.31982  0.52368  0.10458  Biso   1.000  C
  C100     1.0000 0.28084  0.52322  0.08378  Biso   1.000  C
  C101     1.0000 0.22041  0.52499  0.12183  Biso   1.000  C
  C102     1.0000 0.19733  0.52903  0.18147  Biso   1.000  C
  C103     1.0000 0.23629  0.53085  0.20219  Biso   1.000  C
  C104     1.0000 0.29732  0.52796  0.16348  Biso   1.000  C
  C105     1.0000 0.38440  0.52040  0.06480  Biso   1.000  C
  C106     1.0000 0.52368  0.31982  0.05192  Biso   1.000  C
  C107     1.0000 0.52322  0.28084  0.11216  Biso   1.000  C
  C108     1.0000 0.52499  0.22041  0.13277  Biso   1.000  C
  C109     1.0000 0.52903  0.19733  0.09217  Biso   1.000  C
  C110     1.0000 0.53085  0.23629  0.03067  Biso   1.000  C
  C111     1.0000 0.52796  0.29732  0.01124  Biso   1.000  C
  C112     1.0000 0.52040  0.38440  0.03040  Biso   1.000  C
  C113     1.0000 0.10458  0.31982  0.52368  Biso   1.000  C
  C114     1.0000 0.08378  0.28084  0.52322  Biso   1.000  C
  C115     1.0000 0.12183  0.22041  0.52499  Biso   1.000  C
  C116     1.0000 0.18147  0.19733  0.52903  Biso   1.000  C
  C117     1.0000 0.20219  0.23629  0.53085  Biso   1.000  C
  C118     1.0000 0.16348  0.29732  0.52796  Biso   1.000  C
  C119     1.0000 0.06480  0.38440  0.52040  Biso   1.000  C
  C120     1.0000 0.05192  0.52368  0.31982  Biso   1.000  C
  C121     1.0000 0.11216  0.52322  0.28084  Biso   1.000  C
  C122     1.0000 0.13277  0.52499  0.22041  Biso   1.000  C
  C123     1.0000 0.09217  0.52903  0.19733  Biso   1.000  C
  C124     1.0000 0.03067  0.53085  0.23629  Biso   1.000  C
  C125     1.0000 0.01124  0.52796  0.29732  Biso   1.000  C
  C126     1.0000 0.03040  0.52040  0.38440  Biso   1.000  C
  C127     1.0000 0.31982  0.10458  0.05192  Biso   1.000  C
  C128     1.0000 0.28084  0.08378  0.11216  Biso   1.000  C
  C129     1.0000 0.22041  0.12183  0.13277  Biso   1.000  C
  C130     1.0000 0.19733  0.18147  0.09217  Biso   1.000  C
  C131     1.0000 0.23629  0.20219  0.03067  Biso   1.000  C
  C132     1.0000 0.29732  0.16348  0.01124  Biso   1.000  C
  C133     1.0000 0.38440  0.06480  0.03040  Biso   1.000  C
  C134     1.0000 0.52368  0.05192  0.10458  Biso   1.000  C
  C135     1.0000 0.52322  0.11216  0.08378  Biso   1.000  C
  C136     1.0000 0.52499  0.13277  0.12183  Biso   1.000  C
  C137     1.0000 0.52903  0.09217  0.18147  Biso   1.000  C
  C138     1.0000 0.53085  0.03067  0.20219  Biso   1.000  C
  C139     1.0000 0.52796  0.01124  0.16348  Biso   1.000  C
  C140     1.0000 0.52040  0.03040  0.06480  Biso   1.000  C
  C141     1.0000 0.10458  0.52368  0.05192  Biso   1.000  C
  C142     1.0000 0.08378  0.52322  0.11216  Biso   1.000  C
  C143     1.0000 0.12183  0.52499  0.13277  Biso   1.000  C
  C144     1.0000 0.18147  0.52903  0.09217  Biso   1.000  C
  C145     1.0000 0.20219  0.53085  0.03067  Biso   1.000  C
  C146     1.0000 0.16348  0.52796  0.01124  Biso   1.000  C
  C147     1.0000 0.06480  0.52040  0.03040  Biso   1.000  C
  C148     1.0000 0.05192  0.31982  0.10458  Biso   1.000  C
  C149     1.0000 0.11216  0.28084  0.08378  Biso   1.000  C
  C150     1.0000 0.13277  0.22041  0.12183  Biso   1.000  C
  C151     1.0000 0.09217  0.19733  0.18147  Biso   1.000  C
  C152     1.0000 0.03067  0.23629  0.20219  Biso   1.000  C
  C153     1.0000 0.01124  0.29732  0.16348  Biso   1.000  C
  C154     1.0000 0.03040  0.38440  0.06480  Biso   1.000  C
  C155     1.0000 0.31982  0.05192  0.52368  Biso   1.000  C
  C156     1.0000 0.28084  0.11216  0.52322  Biso   1.000  C
  C157     1.0000 0.22041  0.13277  0.52499  Biso   1.000  C
  C158     1.0000 0.19733  0.09217  0.52903  Biso   1.000  C
  C159     1.0000 0.23629  0.03067  0.53085  Biso   1.000  C
  C160     1.0000 0.29732  0.01124  0.52796  Biso   1.000  C
  C161     1.0000 0.38440  0.03040  0.52040  Biso   1.000  C
  C162     1.0000 0.52368  0.10458  0.31982  Biso   1.000  C
  C163     1.0000 0.52322  0.08378  0.28084  Biso   1.000  C
  C164     1.0000 0.52499  0.12183  0.22041  Biso   1.000  C
  C165     1.0000 0.52903  0.18147  0.19733  Biso   1.000  C
  C166     1.0000 0.53085  0.20219  0.23629  Biso   1.000  C
  C167     1.0000 0.52796  0.16348  0.29732  Biso   1.000  C
  C168     1.0000 0.52040  0.06480  0.38440  Biso   1.000  C
  C169     1.0000 0.94808  0.89542  0.68018  Biso   1.000  C
  C170     1.0000 0.88784  0.91622  0.71916  Biso   1.000  C
  C171     1.0000 0.86723  0.87817  0.77959  Biso   1.000  C
  C172     1.0000 0.90783  0.81853  0.80267  Biso   1.000  C
  C173     1.0000 0.96933  0.79781  0.76371  Biso   1.000  C
  C174     1.0000 0.98876  0.83652  0.70268  Biso   1.000  C
  C175     1.0000 0.96960  0.93520  0.61560  Biso   1.000  C
  C176     1.0000 0.89542  0.94808  0.47632  Biso   1.000  C
  C177     1.0000 0.91622  0.88784  0.47678  Biso   1.000  C
  C178     1.0000 0.87817  0.86723  0.47501  Biso   1.000  C
  C179     1.0000 0.81853  0.90783  0.47097  Biso   1.000  C
  C180     1.0000 0.79781  0.96933  0.46915  Biso   1.000  C
  C181     1.0000 0.83652  0.98876  0.47204  Biso   1.000  C
  C182     1.0000 0.93520  0.96960  0.47960  Biso   1.000  C
  C183     1.0000 0.47632  0.68018  0.89542  Biso   1.000  C
  C184     1.0000 0.47678  0.71916  0.91622  Biso   1.000  C
  C185     1.0000 0.47501  0.77959  0.87817  Biso   1.000  C
  C186     1.0000 0.47097  0.80267  0.81853  Biso   1.000  C
  C187     1.0000 0.46915  0.76371  0.79781  Biso   1.000  C
  C188     1.0000 0.47204  0.70268  0.83652  Biso   1.000  C
  C189     1.0000 0.47960  0.61560  0.93520  Biso   1.000  C
  C190     1.0000 0.68018  0.47632  0.94808  Biso   1.000  C
  C191     1.0000 0.71916  0.47678  0.88784  Biso   1.000  C
  C192     1.0000 0.77959  0.47501  0.86723  Biso   1.000  C
  C193     1.0000 0.80267  0.47097  0.90783  Biso   1.000  C
  C194     1.0000 0.76371  0.46915  0.96933  Biso   1.000  C
  C195     1.0000 0.70268  0.47204  0.98876  Biso   1.000  C
  C196     1.0000 0.61560  0.47960  0.96960  Biso   1.000  C
  C197     1.0000 0.68018  0.89542  0.47632  Biso   1.000  C
  C198     1.0000 0.71916  0.91622  0.47678  Biso   1.000  C
  C199     1.0000 0.77959  0.87817  0.47501  Biso   1.000  C
  C200     1.0000 0.80267  0.81853  0.47097  Biso   1.000  C
  C201     1.0000 0.76371  0.79781  0.46915  Biso   1.000  C
  C202     1.0000 0.70268  0.83652  0.47204  Biso   1.000  C
  C203     1.0000 0.61560  0.93520  0.47960  Biso   1.000  C
  C204     1.0000 0.47632  0.94808  0.68018  Biso   1.000  C
  C205     1.0000 0.47678  0.88784  0.71916  Biso   1.000  C
  C206     1.0000 0.47501  0.86723  0.77959  Biso   1.000  C
  C207     1.0000 0.47097  0.90783  0.80267  Biso   1.000  C
  C208     1.0000 0.46915  0.96933  0.76371  Biso   1.000  C
  C209     1.0000 0.47204  0.98876  0.70268  Biso   1.000  C
  C210     1.0000 0.47960  0.96960  0.61560  Biso   1.000  C
  C211     1.0000 0.89542  0.68018  0.94808  Biso   1.000  C
  C212     1.0000 0.91622  0.71916  0.88784  Biso   1.000  C
  C213     1.0000 0.87817  0.77959  0.86723  Biso   1.000  C
  C214     1.0000 0.81853  0.80267  0.90783  Biso   1.000  C
  C215     1.0000 0.79781  0.76371  0.96933  Biso   1.000  C
  C216     1.0000 0.83652  0.70268  0.98876  Biso   1.000  C
  C217     1.0000 0.93520  0.61560  0.96960  Biso   1.000  C
  C218     1.0000 0.94808  0.47632  0.89542  Biso   1.000  C
  C219     1.0000 0.88784  0.47678  0.91622  Biso   1.000  C
  C220     1.0000 0.86723  0.47501  0.87817  Biso   1.000  C
  C221     1.0000 0.90783  0.47097  0.81853  Biso   1.000  C
  C222     1.0000 0.96933  0.46915  0.79781  Biso   1.000  C
  C223     1.0000 0.98876  0.47204  0.83652  Biso   1.000  C
  C224     1.0000 0.96960  0.47960  0.93520  Biso   1.000  C
  C225     1.0000 0.47632  0.89542  0.94808  Biso   1.000  C
  C226     1.0000 0.47678  0.91622  0.88784  Biso   1.000  C
  C227     1.0000 0.47501  0.87817  0.86723  Biso   1.000  C
  C228     1.0000 0.47097  0.81853  0.90783  Biso   1.000  C
  C229     1.0000 0.46915  0.79781  0.96933  Biso   1.000  C
  C230     1.0000 0.47204  0.83652  0.98876  Biso   1.000  C
  C231     1.0000 0.47960  0.93520  0.96960  Biso   1.000  C
  C232     1.0000 0.68018  0.94808  0.89542  Biso   1.000  C
  C233     1.0000 0.71916  0.88784  0.91622  Biso   1.000  C
  C234     1.0000 0.77959  0.86723  0.87817  Biso   1.000  C
  C235     1.0000 0.80267  0.90783  0.81853  Biso   1.000  C
  C236     1.0000 0.76371  0.96933  0.79781  Biso   1.000  C
  C237     1.0000 0.70268  0.98876  0.83652  Biso   1.000  C
  C238     1.0000 0.61560  0.96960  0.93520  Biso   1.000  C
  C239     1.0000 0.94808  0.68018  0.47632  Biso   1.000  C
  C240     1.0000 0.88784  0.71916  0.47678  Biso   1.000  C
  C241     1.0000 0.86723  0.77959  0.47501  Biso   1.000  C
  C242     1.0000 0.90783  0.80267  0.47097  Biso   1.000  C
  C243     1.0000 0.96933  0.76371  0.46915  Biso   1.000  C
  C244     1.0000 0.98876  0.70268  0.47204  Biso   1.000  C
  C245     1.0000 0.96960  0.61560  0.47960  Biso   1.000  C
  C246     1.0000 0.89542  0.47632  0.68018  Biso   1.000  C
  C247     1.0000 0.91622  0.47678  0.71916  Biso   1.000  C
  C248     1.0000 0.87817  0.47501  0.77959  Biso   1.000  C
  C249     1.0000 0.81853  0.47097  0.80267  Biso   1.000  C
  C250     1.0000 0.79781  0.46915  0.76371  Biso   1.000  C
  C251     1.0000 0.83652  0.47204  0.70268  Biso   1.000  C
  C252     1.0000 0.93520  0.47960  0.61560  Biso   1.000  C
  C253     1.0000 0.09391  0.97833  0.41191  Biso   1.000  C
  C254     1.0000 0.01395  0.06715  0.40257  Biso   1.000  C
  C255     1.0000 0.97833  0.09391  0.51585  Biso   1.000  C
  C256     1.0000 0.06715  0.01395  0.51633  Biso   1.000  C
  C257     1.0000 0.41191  0.51585  0.09391  Biso   1.000  C
  C258     1.0000 0.40257  0.51633  0.01395  Biso   1.000  C
  C259     1.0000 0.51585  0.41191  0.97833  Biso   1.000  C
  C260     1.0000 0.51633  0.40257  0.06715  Biso   1.000  C
  C261     1.0000 0.09391  0.41191  0.51585  Biso   1.000  C
  C262     1.0000 0.01395  0.40257  0.51633  Biso   1.000  C
  C263     1.0000 0.97833  0.51585  0.41191  Biso   1.000  C
  C264     1.0000 0.06715  0.51633  0.40257  Biso   1.000  C
  C265     1.0000 0.41191  0.09391  0.97833  Biso   1.000  C
  C266     1.0000 0.40257  0.01395  0.06715  Biso   1.000  C
  C267     1.0000 0.51585  0.97833  0.09391  Biso   1.000  C
  C268     1.0000 0.51633  0.06715  0.01395  Biso   1.000  C
  C269     1.0000 0.09391  0.51585  0.97833  Biso   1.000  C
  C270     1.0000 0.01395  0.51633  0.06715  Biso   1.000  C
  C271     1.0000 0.97833  0.41191  0.09391  Biso   1.000  C
  C272     1.0000 0.06715  0.40257  0.01395  Biso   1.000  C
  C273     1.0000 0.41191  0.97833  0.51585  Biso   1.000  C
  C274     1.0000 0.40257  0.06715  0.51633  Biso   1.000  C
  C275     1.0000 0.51585  0.09391  0.41191  Biso   1.000  C
  C276     1.0000 0.51633  0.01395  0.40257  Biso   1.000  C
  C277     1.0000 0.02167  0.90609  0.58809  Biso   1.000  C
  C278     1.0000 0.93285  0.98605  0.59743  Biso   1.000  C
  C279     1.0000 0.90609  0.02167  0.48415  Biso   1.000  C
  C280     1.0000 0.98605  0.93285  0.48367  Biso   1.000  C
  C281     1.0000 0.48415  0.58809  0.90609  Biso   1.000  C
  C282     1.0000 0.48367  0.59743  0.98605  Biso   1.000  C
  C283     1.0000 0.58809  0.48415  0.02167  Biso   1.000  C
  C284     1.0000 0.59743  0.48367  0.93285  Biso   1.000  C
  C285     1.0000 0.58809  0.90609  0.48415  Biso   1.000  C
  C286     1.0000 0.59743  0.98605  0.48367  Biso   1.000  C
  C287     1.0000 0.48415  0.02167  0.58809  Biso   1.000  C
  C288     1.0000 0.48367  0.93285  0.59743  Biso   1.000  C
  C289     1.0000 0.90609  0.58809  0.02167  Biso   1.000  C
  C290     1.0000 0.98605  0.59743  0.93285  Biso   1.000  C
  C291     1.0000 0.02167  0.48415  0.90609  Biso   1.000  C
  C292     1.0000 0.93285  0.48367  0.98605  Biso   1.000  C
  C293     1.0000 0.48415  0.90609  0.02167  Biso   1.000  C
  C294     1.0000 0.48367  0.98605  0.93285  Biso   1.000  C
  C295     1.0000 0.58809  0.02167  0.90609  Biso   1.000  C
  C296     1.0000 0.59743  0.93285  0.98605  Biso   1.000  C
  C297     1.0000 0.02167  0.58809  0.48415  Biso   1.000  C
  C298     1.0000 0.93285  0.59743  0.48367  Biso   1.000  C
  C299     1.0000 0.90609  0.48415  0.58809  Biso   1.000  C
  C300     1.0000 0.98605  0.48367  0.59743  Biso   1.000  C
  O1       1.0000 0.74224  0.27822  0.74437  Biso   1.000  O
  O2       1.0000 0.74224  0.18142  0.74437  Biso   1.000  O
  O3       1.0000 0.29064  0.72982  0.19597  Biso   1.000  O
  O4       1.0000 0.19384  0.72982  0.29277  Biso   1.000  O
  O5       1.0000 0.29064  0.72982  0.74437  Biso   1.000  O
  O6       1.0000 0.19384  0.72982  0.74437  Biso   1.000  O
  O7       1.0000 0.74224  0.18142  0.29277  Biso   1.000  O
  O8       1.0000 0.74224  0.27822  0.19597  Biso   1.000  O
  O9       1.0000 0.74224  0.72982  0.29277  Biso   1.000  O
  O10      1.0000 0.74224  0.72982  0.19597  Biso   1.000  O
  O11      1.0000 0.19384  0.27822  0.74437  Biso   1.000  O
  O12      1.0000 0.29064  0.18142  0.74437  Biso   1.000  O
  O13      1.0000 0.72064  0.09042  0.94857  Biso   1.000  O
  O14      1.0000 0.70824  0.22702  0.02317  Biso   1.000  O
  O15      1.0000 0.71334  0.25992  0.92047  Biso   1.000  O
  O16      1.0000 0.94644  0.18662  0.72277  Biso   1.000  O
  O17      1.0000 0.02104  0.98782  0.71037  Biso   1.000  O
  O18      1.0000 0.91834  0.05252  0.71547  Biso   1.000  O
  O19      1.0000 0.10284  0.70822  0.20117  Biso   1.000  O
  O20      1.0000 0.23944  0.69582  0.00237  Biso   1.000  O
  O21      1.0000 0.27234  0.70092  0.06707  Biso   1.000  O
  O22      1.0000 0.19904  0.93402  0.10497  Biso   1.000  O
  O23      1.0000 0.00024  0.00862  0.24157  Biso   1.000  O
  O24      1.0000 0.06494  0.90592  0.27447  Biso   1.000  O
  O25      1.0000 0.10284  0.93402  0.72277  Biso   1.000  O
  O26      1.0000 0.23944  0.00862  0.71037  Biso   1.000  O
  O27      1.0000 0.27234  0.90592  0.71547  Biso   1.000  O
  O28      1.0000 0.19904  0.70822  0.94857  Biso   1.000  O
  O29      1.0000 0.00024  0.69582  0.02317  Biso   1.000  O
  O30      1.0000 0.06494  0.70092  0.92047  Biso   1.000  O
  O31      1.0000 0.72064  0.18662  0.10497  Biso   1.000  O
  O32      1.0000 0.70824  0.98782  0.24157  Biso   1.000  O
  O33      1.0000 0.71334  0.05252  0.27447  Biso   1.000  O
  O34      1.0000 0.94644  0.09042  0.20117  Biso   1.000  O
  O35      1.0000 0.02104  0.22702  0.00237  Biso   1.000  O
  O36      1.0000 0.91834  0.25992  0.06707  Biso   1.000  O
  O37      1.0000 0.94644  0.70822  0.10497  Biso   1.000  O
  O38      1.0000 0.02104  0.69582  0.24157  Biso   1.000  O
  O39      1.0000 0.91834  0.70092  0.27447  Biso   1.000  O
  O40      1.0000 0.72064  0.93402  0.20117  Biso   1.000  O
  O41      1.0000 0.70824  0.00862  0.00237  Biso   1.000  O
  O42      1.0000 0.71334  0.90592  0.06707  Biso   1.000  O
  O43      1.0000 0.19904  0.09042  0.72277  Biso   1.000  O
  O44      1.0000 0.00024  0.22702  0.71037  Biso   1.000  O
  O45      1.0000 0.06494  0.25992  0.71547  Biso   1.000  O
  O46      1.0000 0.10284  0.18662  0.94857  Biso   1.000  O
  O47      1.0000 0.23944  0.98782  0.02317  Biso   1.000  O
  O48      1.0000 0.27234  0.05252  0.92047  Biso   1.000  O
  O49      1.0000 0.76384  0.27302  0.54017  Biso   1.000  O
  O50      1.0000 0.77624  0.47182  0.46557  Biso   1.000  O
  O51      1.0000 0.77114  0.40712  0.56827  Biso   1.000  O
  O52      1.0000 0.53804  0.36922  0.76597  Biso   1.000  O
  O53      1.0000 0.46344  0.23262  0.77837  Biso   1.000  O
  O54      1.0000 0.56614  0.19972  0.77327  Biso   1.000  O
  O55      1.0000 0.38164  0.52562  0.28757  Biso   1.000  O
  O56      1.0000 0.24504  0.45102  0.48637  Biso   1.000  O
  O57      1.0000 0.21214  0.55372  0.42167  Biso   1.000  O
  O58      1.0000 0.28544  0.75142  0.38377  Biso   1.000  O
  O59      1.0000 0.48424  0.76382  0.24717  Biso   1.000  O
  O60      1.0000 0.41954  0.75872  0.21427  Biso   1.000  O
  O61      1.0000 0.38164  0.27302  0.76597  Biso   1.000  O
  O62      1.0000 0.24504  0.47182  0.77837  Biso   1.000  O
  O63      1.0000 0.21214  0.40712  0.77327  Biso   1.000  O
  O64      1.0000 0.28544  0.36922  0.54017  Biso   1.000  O
  O65      1.0000 0.48424  0.23262  0.46557  Biso   1.000  O
  O66      1.0000 0.41954  0.19972  0.56827  Biso   1.000  O
  O67      1.0000 0.76384  0.52562  0.38377  Biso   1.000  O
  O68      1.0000 0.77624  0.45102  0.24717  Biso   1.000  O
  O69      1.0000 0.77114  0.55372  0.21427  Biso   1.000  O
  O70      1.0000 0.53804  0.75142  0.28757  Biso   1.000  O
  O71      1.0000 0.46344  0.76382  0.48637  Biso   1.000  O
  O72      1.0000 0.56614  0.75872  0.42167  Biso   1.000  O
  O73      1.0000 0.53804  0.27302  0.38377  Biso   1.000  O
  O74      1.0000 0.46344  0.47182  0.24717  Biso   1.000  O
  O75      1.0000 0.56614  0.40712  0.21427  Biso   1.000  O
  O76      1.0000 0.76384  0.36922  0.28757  Biso   1.000  O
  O77      1.0000 0.77624  0.23262  0.48637  Biso   1.000  O
  O78      1.0000 0.77114  0.19972  0.42167  Biso   1.000  O
  O79      1.0000 0.28544  0.52562  0.76597  Biso   1.000  O
  O80      1.0000 0.48424  0.45102  0.77837  Biso   1.000  O
  O81      1.0000 0.41954  0.55372  0.77327  Biso   1.000  O
  O82      1.0000 0.38164  0.75142  0.54017  Biso   1.000  O
  O83      1.0000 0.24504  0.76382  0.46557  Biso   1.000  O
  O84      1.0000 0.21214  0.75872  0.56827  Biso   1.000  O
  O85      1.0000 0.71856  0.17790  0.92455  Biso   1.000  O
  O86      1.0000 0.71902  0.11766  0.96353  Biso   1.000  O
  O87      1.0000 0.71725  0.09705  0.02396  Biso   1.000  O
  O88      1.0000 0.71321  0.13765  0.04704  Biso   1.000  O
  O89      1.0000 0.71139  0.19915  0.00808  Biso   1.000  O
  O90      1.0000 0.71428  0.21858  0.94705  Biso   1.000  O
  O91      1.0000 0.72184  0.19942  0.85997  Biso   1.000  O
  O92      1.0000 0.92242  0.12524  0.72069  Biso   1.000  O
  O93      1.0000 0.96140  0.14604  0.72115  Biso   1.000  O
  O94      1.0000 0.02183  0.10799  0.71938  Biso   1.000  O
  O95      1.0000 0.04491  0.04835  0.71534  Biso   1.000  O
  O96      1.0000 0.00595  0.02763  0.71352  Biso   1.000  O
  O97      1.0000 0.94492  0.06634  0.71641  Biso   1.000  O
  O98      1.0000 0.85784  0.16502  0.72397  Biso   1.000  O
  O99      1.0000 0.19032  0.70614  0.13979  Biso   1.000  O
  O100     1.0000 0.13008  0.70660  0.16059  Biso   1.000  O
  O101     1.0000 0.10947  0.70483  0.12254  Biso   1.000  O
  O102     1.0000 0.15007  0.70079  0.06290  Biso   1.000  O
  O103     1.0000 0.21157  0.69897  0.04218  Biso   1.000  O
  O104     1.0000 0.23100  0.70186  0.08089  Biso   1.000  O
  O105     1.0000 0.21184  0.70942  0.17957  Biso   1.000  O
  O106     1.0000 0.13766  0.91000  0.19245  Biso   1.000  O
  O107     1.0000 0.15846  0.94898  0.13221  Biso   1.000  O
  O108     1.0000 0.12041  0.00941  0.11160  Biso   1.000  O
  O109     1.0000 0.06077  0.03249  0.15220  Biso   1.000  O
  O110     1.0000 0.04005  0.99353  0.21370  Biso   1.000  O
  O111     1.0000 0.07876  0.93250  0.23313  Biso   1.000  O
  O112     1.0000 0.17744  0.84542  0.21397  Biso   1.000  O
  O113     1.0000 0.19032  0.91000  0.72069  Biso   1.000  O
  O114     1.0000 0.13008  0.94898  0.72115  Biso   1.000  O
  O115     1.0000 0.10947  0.00941  0.71938  Biso   1.000  O
  O116     1.0000 0.15007  0.03249  0.71534  Biso   1.000  O
  O117     1.0000 0.21157  0.99353  0.71352  Biso   1.000  O
  O118     1.0000 0.23100  0.93250  0.71641  Biso   1.000  O
  O119     1.0000 0.21184  0.84542  0.72397  Biso   1.000  O
  O120     1.0000 0.13766  0.70614  0.92455  Biso   1.000  O
  O121     1.0000 0.15846  0.70660  0.96353  Biso   1.000  O
  O122     1.0000 0.12041  0.70483  0.02396  Biso   1.000  O
  O123     1.0000 0.06077  0.70079  0.04704  Biso   1.000  O
  O124     1.0000 0.04005  0.69897  0.00808  Biso   1.000  O
  O125     1.0000 0.07876  0.70186  0.94705  Biso   1.000  O
  O126     1.0000 0.17744  0.70942  0.85997  Biso   1.000  O
  O127     1.0000 0.71856  0.12524  0.19245  Biso   1.000  O
  O128     1.0000 0.71902  0.14604  0.13221  Biso   1.000  O
  O129     1.0000 0.71725  0.10799  0.11160  Biso   1.000  O
  O130     1.0000 0.71321  0.04835  0.15220  Biso   1.000  O
  O131     1.0000 0.71139  0.02763  0.21370  Biso   1.000  O
  O132     1.0000 0.71428  0.06634  0.23313  Biso   1.000  O
  O133     1.0000 0.72184  0.16502  0.21397  Biso   1.000  O
  O134     1.0000 0.92242  0.17790  0.13979  Biso   1.000  O
  O135     1.0000 0.96140  0.11766  0.16059  Biso   1.000  O
  O136     1.0000 0.02183  0.09705  0.12254  Biso   1.000  O
  O137     1.0000 0.04491  0.13765  0.06290  Biso   1.000  O
  O138     1.0000 0.00595  0.19915  0.04218  Biso   1.000  O
  O139     1.0000 0.94492  0.21858  0.08089  Biso   1.000  O
  O140     1.0000 0.85784  0.19942  0.17957  Biso   1.000  O
  O141     1.0000 0.92242  0.70614  0.19245  Biso   1.000  O
  O142     1.0000 0.96140  0.70660  0.13221  Biso   1.000  O
  O143     1.0000 0.02183  0.70483  0.11160  Biso   1.000  O
  O144     1.0000 0.04491  0.70079  0.15220  Biso   1.000  O
  O145     1.0000 0.00595  0.69897  0.21370  Biso   1.000  O
  O146     1.0000 0.94492  0.70186  0.23313  Biso   1.000  O
  O147     1.0000 0.85784  0.70942  0.21397  Biso   1.000  O
  O148     1.0000 0.71856  0.91000  0.13979  Biso   1.000  O
  O149     1.0000 0.71902  0.94898  0.16059  Biso   1.000  O
  O150     1.0000 0.71725  0.00941  0.12254  Biso   1.000  O
  O151     1.0000 0.71321  0.03249  0.06290  Biso   1.000  O
  O152     1.0000 0.71139  0.99353  0.04218  Biso   1.000  O
  O153     1.0000 0.71428  0.93250  0.08089  Biso   1.000  O
  O154     1.0000 0.72184  0.84542  0.17957  Biso   1.000  O
  O155     1.0000 0.13766  0.17790  0.72069  Biso   1.000  O
  O156     1.0000 0.15846  0.11766  0.72115  Biso   1.000  O
  O157     1.0000 0.12041  0.09705  0.71938  Biso   1.000  O
  O158     1.0000 0.06077  0.13765  0.71534  Biso   1.000  O
  O159     1.0000 0.04005  0.19915  0.71352  Biso   1.000  O
  O160     1.0000 0.07876  0.21858  0.71641  Biso   1.000  O
  O161     1.0000 0.17744  0.19942  0.72397  Biso   1.000  O
  O162     1.0000 0.19032  0.12524  0.92455  Biso   1.000  O
  O163     1.0000 0.13008  0.14604  0.96353  Biso   1.000  O
  O164     1.0000 0.10947  0.10799  0.02396  Biso   1.000  O
  O165     1.0000 0.15007  0.04835  0.04704  Biso   1.000  O
  O166     1.0000 0.21157  0.02763  0.00808  Biso   1.000  O
  O167     1.0000 0.23100  0.06634  0.94705  Biso   1.000  O
  O168     1.0000 0.21184  0.16502  0.85997  Biso   1.000  O
  O169     1.0000 0.76592  0.33440  0.56419  Biso   1.000  O
  O170     1.0000 0.76546  0.31360  0.52521  Biso   1.000  O
  O171     1.0000 0.76723  0.35165  0.46478  Biso   1.000  O
  O172     1.0000 0.77127  0.41129  0.44170  Biso   1.000  O
  O173     1.0000 0.77309  0.43201  0.48066  Biso   1.000  O
  O174     1.0000 0.77020  0.39330  0.54169  Biso   1.000  O
  O175     1.0000 0.76264  0.29462  0.62877  Biso   1.000  O
  O176     1.0000 0.56206  0.28174  0.76805  Biso   1.000  O
  O177     1.0000 0.52308  0.34198  0.76759  Biso   1.000  O
  O178     1.0000 0.46265  0.36259  0.76936  Biso   1.000  O
  O179     1.0000 0.43957  0.32199  0.77340  Biso   1.000  O
  O180     1.0000 0.47853  0.26049  0.77522  Biso   1.000  O
  O181     1.0000 0.53956  0.24106  0.77233  Biso   1.000  O
  O182     1.0000 0.62664  0.26022  0.76477  Biso   1.000  O
  O183     1.0000 0.29416  0.54964  0.34895  Biso   1.000  O
  O184     1.0000 0.35440  0.51066  0.32815  Biso   1.000  O
  O185     1.0000 0.37501  0.45023  0.36620  Biso   1.000  O
  O186     1.0000 0.33441  0.42715  0.42584  Biso   1.000  O
  O187     1.0000 0.27291  0.46611  0.44656  Biso   1.000  O
  O188     1.0000 0.25348  0.52714  0.40785  Biso   1.000  O
  O189     1.0000 0.27264  0.61422  0.30917  Biso   1.000  O
  O190     1.0000 0.34682  0.75350  0.29629  Biso   1.000  O
  O191     1.0000 0.32602  0.75304  0.35653  Biso   1.000  O
  O192     1.0000 0.36407  0.75481  0.37714  Biso   1.000  O
  O193     1.0000 0.42371  0.75885  0.33654  Biso   1.000  O
  O194     1.0000 0.44443  0.76067  0.27504  Biso   1.000  O
  O195     1.0000 0.40572  0.75778  0.25561  Biso   1.000  O
  O196     1.0000 0.30704  0.75022  0.27477  Biso   1.000  O
  O197     1.0000 0.29416  0.33440  0.76805  Biso   1.000  O
  O198     1.0000 0.35440  0.31360  0.76759  Biso   1.000  O
  O199     1.0000 0.37501  0.35165  0.76936  Biso   1.000  O
  O200     1.0000 0.33441  0.41129  0.77340  Biso   1.000  O
  O201     1.0000 0.27291  0.43201  0.77522  Biso   1.000  O
  O202     1.0000 0.25348  0.39330  0.77233  Biso   1.000  O
  O203     1.0000 0.27264  0.29462  0.76477  Biso   1.000  O
  O204     1.0000 0.34682  0.28174  0.56419  Biso   1.000  O
  O205     1.0000 0.32602  0.34198  0.52521  Biso   1.000  O
  O206     1.0000 0.36407  0.36259  0.46478  Biso   1.000  O
  O207     1.0000 0.42371  0.32199  0.44170  Biso   1.000  O
  O208     1.0000 0.44443  0.26049  0.48066  Biso   1.000  O
  O209     1.0000 0.40572  0.24106  0.54169  Biso   1.000  O
  O210     1.0000 0.30704  0.26022  0.62877  Biso   1.000  O
  O211     1.0000 0.76592  0.54964  0.29629  Biso   1.000  O
  O212     1.0000 0.76546  0.51066  0.35653  Biso   1.000  O
  O213     1.0000 0.76723  0.45023  0.37714  Biso   1.000  O
  O214     1.0000 0.77127  0.42715  0.33654  Biso   1.000  O
  O215     1.0000 0.77309  0.46611  0.27504  Biso   1.000  O
  O216     1.0000 0.77020  0.52714  0.25561  Biso   1.000  O
  O217     1.0000 0.76264  0.61422  0.27477  Biso   1.000  O
  O218     1.0000 0.56206  0.75350  0.34895  Biso   1.000  O
  O219     1.0000 0.52308  0.75304  0.32815  Biso   1.000  O
  O220     1.0000 0.46265  0.75481  0.36620  Biso   1.000  O
  O221     1.0000 0.43957  0.75885  0.42584  Biso   1.000  O
  O222     1.0000 0.47853  0.76067  0.44656  Biso   1.000  O
  O223     1.0000 0.53956  0.75778  0.40785  Biso   1.000  O
  O224     1.0000 0.62664  0.75022  0.30917  Biso   1.000  O
  O225     1.0000 0.56206  0.33440  0.29629  Biso   1.000  O
  O226     1.0000 0.52308  0.31360  0.35653  Biso   1.000  O
  O227     1.0000 0.46265  0.35165  0.37714  Biso   1.000  O
  O228     1.0000 0.43957  0.41129  0.33654  Biso   1.000  O
  O229     1.0000 0.47853  0.43201  0.27504  Biso   1.000  O
  O230     1.0000 0.53956  0.39330  0.25561  Biso   1.000  O
  O231     1.0000 0.62664  0.29462  0.27477  Biso   1.000  O
  O232     1.0000 0.76592  0.28174  0.34895  Biso   1.000  O
  O233     1.0000 0.76546  0.34198  0.32815  Biso   1.000  O
  O234     1.0000 0.76723  0.36259  0.36620  Biso   1.000  O
  O235     1.0000 0.77127  0.32199  0.42584  Biso   1.000  O
  O236     1.0000 0.77309  0.26049  0.44656  Biso   1.000  O
  O237     1.0000 0.77020  0.24106  0.40785  Biso   1.000  O
  O238     1.0000 0.76264  0.26022  0.30917  Biso   1.000  O
  O239     1.0000 0.34682  0.54964  0.76805  Biso   1.000  O
  O240     1.0000 0.32602  0.51066  0.76759  Biso   1.000  O
  O241     1.0000 0.36407  0.45023  0.76936  Biso   1.000  O
  O242     1.0000 0.42371  0.42715  0.77340  Biso   1.000  O
  O243     1.0000 0.44443  0.46611  0.77522  Biso   1.000  O
  O244     1.0000 0.40572  0.52714  0.77233  Biso   1.000  O
  O245     1.0000 0.30704  0.61422  0.76477  Biso   1.000  O
  O246     1.0000 0.29416  0.75350  0.56419  Biso   1.000  O
  O247     1.0000 0.35440  0.75304  0.52521  Biso   1.000  O
  O248     1.0000 0.37501  0.75481  0.46478  Biso   1.000  O
  O249     1.0000 0.33441  0.75885  0.44170  Biso   1.000  O
  O250     1.0000 0.27291  0.76067  0.48066  Biso   1.000  O
  O251     1.0000 0.25348  0.75778  0.54169  Biso   1.000  O
  O252     1.0000 0.27264  0.75022  0.62877  Biso   1.000  O
  O253     1.0000 0.72639  0.25149  0.83246  Biso   1.000  O
  O254     1.0000 0.72591  0.16267  0.84180  Biso   1.000  O
  O255     1.0000 0.83033  0.13591  0.72852  Biso   1.000  O
  O256     1.0000 0.83967  0.21587  0.72804  Biso   1.000  O
  O257     1.0000 0.26391  0.71397  0.15046  Biso   1.000  O
  O258     1.0000 0.17509  0.71349  0.23042  Biso   1.000  O
  O259     1.0000 0.14833  0.81791  0.26604  Biso   1.000  O
  O260     1.0000 0.22829  0.82725  0.17722  Biso   1.000  O
  O261     1.0000 0.26391  0.81791  0.72852  Biso   1.000  O
  O262     1.0000 0.17509  0.82725  0.72804  Biso   1.000  O
  O263     1.0000 0.14833  0.71397  0.83246  Biso   1.000  O
  O264     1.0000 0.22829  0.71349  0.84180  Biso   1.000  O
  O265     1.0000 0.72639  0.13591  0.26604  Biso   1.000  O
  O266     1.0000 0.72591  0.21587  0.17722  Biso   1.000  O
  O267     1.0000 0.83033  0.25149  0.15046  Biso   1.000  O
  O268     1.0000 0.83967  0.16267  0.23042  Biso   1.000  O
  O269     1.0000 0.83033  0.71397  0.26604  Biso   1.000  O
  O270     1.0000 0.83967  0.71349  0.17722  Biso   1.000  O
  O271     1.0000 0.72639  0.81791  0.15046  Biso   1.000  O
  O272     1.0000 0.72591  0.82725  0.23042  Biso   1.000  O
  O273     1.0000 0.14833  0.25149  0.72852  Biso   1.000  O
  O274     1.0000 0.22829  0.16267  0.72804  Biso   1.000  O
  O275     1.0000 0.26391  0.13591  0.83246  Biso   1.000  O
  O276     1.0000 0.17509  0.21587  0.84180  Biso   1.000  O
  O277     1.0000 0.75809  0.32373  0.65628  Biso   1.000  O
  O278     1.0000 0.75857  0.24377  0.64694  Biso   1.000  O
  O279     1.0000 0.65415  0.20815  0.76022  Biso   1.000  O
  O280     1.0000 0.64481  0.29697  0.76070  Biso   1.000  O
  O281     1.0000 0.22057  0.64173  0.33828  Biso   1.000  O
  O282     1.0000 0.30939  0.63239  0.25832  Biso   1.000  O
  O283     1.0000 0.33615  0.74567  0.22270  Biso   1.000  O
  O284     1.0000 0.25619  0.74615  0.31152  Biso   1.000  O
  O285     1.0000 0.22057  0.32373  0.76022  Biso   1.000  O
  O286     1.0000 0.30939  0.24377  0.76070  Biso   1.000  O
  O287     1.0000 0.33615  0.20815  0.65628  Biso   1.000  O
  O288     1.0000 0.25619  0.29697  0.64694  Biso   1.000  O
  O289     1.0000 0.75809  0.64173  0.22270  Biso   1.000  O
  O290     1.0000 0.75857  0.63239  0.31152  Biso   1.000  O
  O291     1.0000 0.65415  0.74567  0.33828  Biso   1.000  O
  O292     1.0000 0.64481  0.74615  0.25832  Biso   1.000  O
  O293     1.0000 0.65415  0.32373  0.22270  Biso   1.000  O
  O294     1.0000 0.64481  0.24377  0.31152  Biso   1.000  O
  O295     1.0000 0.75809  0.20815  0.33828  Biso   1.000  O
  O296     1.0000 0.75857  0.29697  0.25832  Biso   1.000  O
  O297     1.0000 0.33615  0.64173  0.76022  Biso   1.000  O
  O298     1.0000 0.25619  0.63239  0.76070  Biso   1.000  O
  O299     1.0000 0.22057  0.74567  0.65628  Biso   1.000  O
