data_image0
_cell_length_a       11.0355
_cell_length_b       15.693
_cell_length_c       16.914
_cell_angle_alpha    90
_cell_angle_beta     90
_cell_angle_gamma    90

_symmetry_space_group_name_H-M    "P 1"
_symmetry_int_tables_number       1

loop_
  _symmetry_equiv_pos_as_xyz
  'x, y, z'

loop_
  _atom_site_label
  _atom_site_occupancy
  _atom_site_fract_x
  _atom_site_fract_y
  _atom_site_fract_z
  _atom_site_thermal_displace_type
  _atom_site_B_iso_or_equiv
  _atom_site_type_symbol
  Zn1      1.0000 0.50000  0.83540  0.28230  Biso   1.000  Zn
  Zn2      1.0000 0.50000  0.16460  0.71770  Biso   1.000  Zn
  Zn3      1.0000 0.00000  0.66460  0.78230  Biso   1.000  Zn
  Zn4      1.0000 0.00000  0.33540  0.21770  Biso   1.000  Zn
  W1       1.0000 0.62122  0.44993  0.06359  Biso   1.000  W
  W2       1.0000 0.62122  0.55007  0.93641  Biso   1.000  W
  W3       1.0000 0.87878  0.05007  0.56359  Biso   1.000  W
  W4       1.0000 0.87878  0.94993  0.43641  Biso   1.000  W
  W5       1.0000 0.37878  0.55007  0.93641  Biso   1.000  W
  W6       1.0000 0.37878  0.44993  0.06359  Biso   1.000  W
  W7       1.0000 0.12122  0.94993  0.43641  Biso   1.000  W
  W8       1.0000 0.12122  0.05007  0.56359  Biso   1.000  W
  W9       1.0000 0.50000  0.59732  0.06608  Biso   1.000  W
  W10      1.0000 0.50000  0.40268  0.93392  Biso   1.000  W
  W11      1.0000 0.00000  0.90268  0.56608  Biso   1.000  W
  W12      1.0000 0.00000  0.09732  0.43392  Biso   1.000  W
  C1       1.0000 0.76900  0.39730  0.13160  Biso   1.000  C
  C2       1.0000 0.76900  0.60270  0.86840  Biso   1.000  C
  C3       1.0000 0.73100  0.10270  0.63160  Biso   1.000  C
  C4       1.0000 0.73100  0.89730  0.36840  Biso   1.000  C
  C5       1.0000 0.23100  0.60270  0.86840  Biso   1.000  C
  C6       1.0000 0.23100  0.39730  0.13160  Biso   1.000  C
  C7       1.0000 0.26900  0.89730  0.36840  Biso   1.000  C
  C8       1.0000 0.26900  0.10270  0.63160  Biso   1.000  C
  C9       1.0000 0.50000  0.70000  0.14000  Biso   1.000  C
  C10      1.0000 0.50000  0.30000  0.86000  Biso   1.000  C
  C11      1.0000 0.00000  0.80000  0.64000  Biso   1.000  C
  C12      1.0000 0.00000  0.20000  0.36000  Biso   1.000  C
  S1       1.0000 0.72170  0.59050  0.06120  Biso   1.000  S
  S2       1.0000 0.72170  0.40950  0.93880  Biso   1.000  S
  S3       1.0000 0.77830  0.90950  0.56120  Biso   1.000  S
  S4       1.0000 0.77830  0.09050  0.43880  Biso   1.000  S
  S5       1.0000 0.27830  0.40950  0.93880  Biso   1.000  S
  S6       1.0000 0.27830  0.59050  0.06120  Biso   1.000  S
  S7       1.0000 0.22170  0.09050  0.43880  Biso   1.000  S
  S8       1.0000 0.22170  0.90950  0.56120  Biso   1.000  S
  S9       1.0000 0.50000  0.68100  0.94290  Biso   1.000  S
  S10      1.0000 0.50000  0.49730  0.17690  Biso   1.000  S
  S11      1.0000 0.50000  0.31900  0.05710  Biso   1.000  S
  S12      1.0000 0.50000  0.50270  0.82310  Biso   1.000  S
  S13      1.0000 0.00000  0.81900  0.44290  Biso   1.000  S
  S14      1.0000 0.00000  0.00270  0.67690  Biso   1.000  S
  S15      1.0000 0.00000  0.18100  0.55710  Biso   1.000  S
  S16      1.0000 0.00000  0.99730  0.32310  Biso   1.000  S
  N1       1.0000 0.84620  0.37210  0.17170  Biso   1.000  N
  N2       1.0000 0.84620  0.62790  0.82830  Biso   1.000  N
  N3       1.0000 0.65380  0.12790  0.67170  Biso   1.000  N
  N4       1.0000 0.65380  0.87210  0.32830  Biso   1.000  N
  N5       1.0000 0.15380  0.62790  0.82830  Biso   1.000  N
  N6       1.0000 0.15380  0.37210  0.17170  Biso   1.000  N
  N7       1.0000 0.34620  0.87210  0.32830  Biso   1.000  N
  N8       1.0000 0.34620  0.12790  0.67170  Biso   1.000  N
  N9       1.0000 0.50000  0.75800  0.19200  Biso   1.000  N
  N10      1.0000 0.50000  0.24200  0.80800  Biso   1.000  N
  N11      1.0000 0.00000  0.74200  0.69200  Biso   1.000  N
  N12      1.0000 0.00000  0.25800  0.30800  Biso   1.000  N
  Zn5      1.0000 0.18123  0.31861  0.70947  Biso   1.000  Zn
  Zn6      1.0000 0.18123  0.64781  0.27407  Biso   1.000  Zn
  Zn7      1.0000 0.68123  0.14781  0.20947  Biso   1.000  Zn
  Zn8      1.0000 0.68123  0.81861  0.77407  Biso   1.000  Zn
  W13      1.0000 0.06001  0.93314  0.92818  Biso   1.000  W
  W14      1.0000 0.06001  0.03328  0.05536  Biso   1.000  W
  W15      1.0000 0.80245  0.53328  0.42818  Biso   1.000  W
  W16      1.0000 0.80245  0.43314  0.55536  Biso   1.000  W
  W17      1.0000 0.30245  0.03328  0.05536  Biso   1.000  W
  W18      1.0000 0.30245  0.93314  0.92818  Biso   1.000  W
  W19      1.0000 0.56001  0.43314  0.55536  Biso   1.000  W
  W20      1.0000 0.56001  0.53328  0.42818  Biso   1.000  W
  W21      1.0000 0.18123  0.08053  0.92569  Biso   1.000  W
  W22      1.0000 0.18123  0.88589  0.05785  Biso   1.000  W
  W23      1.0000 0.68123  0.38589  0.42569  Biso   1.000  W
  W24      1.0000 0.68123  0.58053  0.55785  Biso   1.000  W
  C13      1.0000 0.91223  0.88051  0.86017  Biso   1.000  C
  C14      1.0000 0.91223  0.08591  0.12337  Biso   1.000  C
  C15      1.0000 0.95023  0.58591  0.36017  Biso   1.000  C
  C16      1.0000 0.95023  0.38051  0.62337  Biso   1.000  C
  C17      1.0000 0.45023  0.08591  0.12337  Biso   1.000  C
  C18      1.0000 0.45023  0.88051  0.86017  Biso   1.000  C
  C19      1.0000 0.41223  0.38051  0.62337  Biso   1.000  C
  C20      1.0000 0.41223  0.58591  0.36017  Biso   1.000  C
  C21      1.0000 0.18123  0.18321  0.85177  Biso   1.000  C
  C22      1.0000 0.18123  0.78321  0.13177  Biso   1.000  C
  C23      1.0000 0.68123  0.28321  0.35177  Biso   1.000  C
  C24      1.0000 0.68123  0.68321  0.63177  Biso   1.000  C
  S17      1.0000 0.95953  0.07371  0.93057  Biso   1.000  S
  S18      1.0000 0.95953  0.89271  0.05297  Biso   1.000  S
  S19      1.0000 0.90293  0.39271  0.43057  Biso   1.000  S
  S20      1.0000 0.90293  0.57371  0.55297  Biso   1.000  S
  S21      1.0000 0.40293  0.89271  0.05297  Biso   1.000  S
  S22      1.0000 0.40293  0.07371  0.93057  Biso   1.000  S
  S23      1.0000 0.45953  0.57371  0.55297  Biso   1.000  S
  S24      1.0000 0.45953  0.39271  0.43057  Biso   1.000  S
  S25      1.0000 0.18123  0.16421  0.04887  Biso   1.000  S
  S26      1.0000 0.18123  0.98051  0.81487  Biso   1.000  S
  S27      1.0000 0.18123  0.80221  0.93467  Biso   1.000  S
  S28      1.0000 0.18123  0.98591  0.16867  Biso   1.000  S
  S29      1.0000 0.68123  0.30221  0.54887  Biso   1.000  S
  S30      1.0000 0.68123  0.48591  0.31487  Biso   1.000  S
  S31      1.0000 0.68123  0.66421  0.43467  Biso   1.000  S
  S32      1.0000 0.68123  0.48051  0.66867  Biso   1.000  S
  N13      1.0000 0.83503  0.85531  0.82007  Biso   1.000  N
  N14      1.0000 0.83503  0.11111  0.16347  Biso   1.000  N
  N15      1.0000 0.02743  0.61111  0.32007  Biso   1.000  N
  N16      1.0000 0.02743  0.35531  0.66347  Biso   1.000  N
  N17      1.0000 0.52743  0.11111  0.16347  Biso   1.000  N
  N18      1.0000 0.52743  0.85531  0.82007  Biso   1.000  N
  N19      1.0000 0.33503  0.35531  0.66347  Biso   1.000  N
  N20      1.0000 0.33503  0.61111  0.32007  Biso   1.000  N
  N21      1.0000 0.18123  0.24121  0.79977  Biso   1.000  N
  N22      1.0000 0.18123  0.72521  0.18377  Biso   1.000  N
  N23      1.0000 0.68123  0.22521  0.29977  Biso   1.000  N
