data_image0
_cell_length_a       18.2359
_cell_length_b       18.2359
_cell_length_c       18.2359
_cell_angle_alpha    60
_cell_angle_beta     60
_cell_angle_gamma    60

_symmetry_space_group_name_H-M    "P 1"
_symmetry_int_tables_number       1

loop_
  _symmetry_equiv_pos_as_xyz
  'x, y, z'

loop_
  _atom_site_label
  _atom_site_occupancy
  _atom_site_fract_x
  _atom_site_fract_y
  _atom_site_fract_z
  _atom_site_thermal_displace_type
  _atom_site_B_iso_or_equiv
  _atom_site_type_symbol
  C1       1.0000 0.29356  0.29357  0.11930  Biso   1.000  C
  C2       1.0000 0.29356  0.29357  0.29357  Biso   1.000  C
  C3       1.0000 0.11929  0.29357  0.29357  Biso   1.000  C
  C4       1.0000 0.29356  0.11930  0.29357  Biso   1.000  C
  C5       1.0000 0.70644  0.70643  0.88070  Biso   1.000  C
  C6       1.0000 0.70644  0.70643  0.70643  Biso   1.000  C
  C7       1.0000 0.70644  0.88070  0.70643  Biso   1.000  C
  C8       1.0000 0.88071  0.70643  0.70643  Biso   1.000  C
  C9       1.0000 0.45600  0.45600  0.93640  Biso   1.000  C
  C10      1.0000 0.45600  0.45600  0.15160  Biso   1.000  C
  C11      1.0000 0.93640  0.15160  0.45600  Biso   1.000  C
  C12      1.0000 0.15160  0.93640  0.45600  Biso   1.000  C
  C13      1.0000 0.45600  0.93640  0.15160  Biso   1.000  C
  C14      1.0000 0.45600  0.15160  0.93640  Biso   1.000  C
  C15      1.0000 0.93640  0.45600  0.45600  Biso   1.000  C
  C16      1.0000 0.15160  0.45600  0.45600  Biso   1.000  C
  C17      1.0000 0.45600  0.15160  0.45600  Biso   1.000  C
  C18      1.0000 0.45600  0.93640  0.45600  Biso   1.000  C
  C19      1.0000 0.93640  0.45600  0.15160  Biso   1.000  C
  C20      1.0000 0.15160  0.45600  0.93640  Biso   1.000  C
  C21      1.0000 0.54400  0.54400  0.06360  Biso   1.000  C
  C22      1.0000 0.54400  0.54400  0.84840  Biso   1.000  C
  C23      1.0000 0.84840  0.06360  0.54400  Biso   1.000  C
  C24      1.0000 0.06360  0.84840  0.54400  Biso   1.000  C
  C25      1.0000 0.06360  0.54400  0.84840  Biso   1.000  C
  C26      1.0000 0.84840  0.54400  0.06360  Biso   1.000  C
  C27      1.0000 0.54400  0.06360  0.54400  Biso   1.000  C
  C28      1.0000 0.54400  0.84840  0.54400  Biso   1.000  C
  C29      1.0000 0.84840  0.54400  0.54400  Biso   1.000  C
  C30      1.0000 0.06360  0.54400  0.54400  Biso   1.000  C
  C31      1.0000 0.54400  0.06360  0.84840  Biso   1.000  C
  C32      1.0000 0.54400  0.84840  0.06360  Biso   1.000  C
  C33      1.0000 0.47360  0.47360  0.96320  Biso   1.000  C
  C34      1.0000 0.47360  0.47360  0.08960  Biso   1.000  C
  C35      1.0000 0.96320  0.08960  0.47360  Biso   1.000  C
  C36      1.0000 0.08960  0.96320  0.47360  Biso   1.000  C
  C37      1.0000 0.47360  0.96320  0.08960  Biso   1.000  C
  C38      1.0000 0.47360  0.08960  0.96320  Biso   1.000  C
  C39      1.0000 0.96320  0.47360  0.47360  Biso   1.000  C
  C40      1.0000 0.08960  0.47360  0.47360  Biso   1.000  C
  C41      1.0000 0.47360  0.08960  0.47360  Biso   1.000  C
  C42      1.0000 0.47360  0.96320  0.47360  Biso   1.000  C
  C43      1.0000 0.96320  0.47360  0.08960  Biso   1.000  C
  C44      1.0000 0.08960  0.47360  0.96320  Biso   1.000  C
  C45      1.0000 0.52640  0.52640  0.03680  Biso   1.000  C
  C46      1.0000 0.52640  0.52640  0.91040  Biso   1.000  C
  C47      1.0000 0.91040  0.03680  0.52640  Biso   1.000  C
  C48      1.0000 0.03680  0.91040  0.52640  Biso   1.000  C
  C49      1.0000 0.03680  0.52640  0.91040  Biso   1.000  C
  C50      1.0000 0.91040  0.52640  0.03680  Biso   1.000  C
  C51      1.0000 0.52640  0.03680  0.52640  Biso   1.000  C
  C52      1.0000 0.52640  0.91040  0.52640  Biso   1.000  C
  C53      1.0000 0.91040  0.52640  0.52640  Biso   1.000  C
  C54      1.0000 0.03680  0.52640  0.52640  Biso   1.000  C
  C55      1.0000 0.52640  0.03680  0.91040  Biso   1.000  C
  C56      1.0000 0.52640  0.91040  0.03680  Biso   1.000  C
  C57      1.0000 0.38860  0.38860  0.11140  Biso   1.000  C
  C58      1.0000 0.44630  0.44630  0.05370  Biso   1.000  C
  C59      1.0000 0.11140  0.11140  0.38860  Biso   1.000  C
  C60      1.0000 0.05370  0.05370  0.44630  Biso   1.000  C
  C61      1.0000 0.38860  0.11140  0.11140  Biso   1.000  C
  C62      1.0000 0.44630  0.05370  0.05370  Biso   1.000  C
  C63      1.0000 0.11140  0.38860  0.38860  Biso   1.000  C
  C64      1.0000 0.05370  0.44630  0.44630  Biso   1.000  C
  C65      1.0000 0.38860  0.11140  0.38860  Biso   1.000  C
  C66      1.0000 0.44630  0.05370  0.44630  Biso   1.000  C
  C67      1.0000 0.11140  0.38860  0.11140  Biso   1.000  C
  C68      1.0000 0.05370  0.44630  0.05370  Biso   1.000  C
  C69      1.0000 0.61140  0.61140  0.88860  Biso   1.000  C
  C70      1.0000 0.55370  0.55370  0.94630  Biso   1.000  C
  C71      1.0000 0.88860  0.88860  0.61140  Biso   1.000  C
  C72      1.0000 0.94630  0.94630  0.55370  Biso   1.000  C
  C73      1.0000 0.88860  0.61140  0.88860  Biso   1.000  C
  C74      1.0000 0.94630  0.55370  0.94630  Biso   1.000  C
  C75      1.0000 0.61140  0.88860  0.61140  Biso   1.000  C
  C76      1.0000 0.55370  0.94630  0.55370  Biso   1.000  C
  C77      1.0000 0.88860  0.61140  0.61140  Biso   1.000  C
  C78      1.0000 0.94630  0.55370  0.55370  Biso   1.000  C
  C79      1.0000 0.61140  0.88860  0.88860  Biso   1.000  C
  C80      1.0000 0.55370  0.94630  0.94630  Biso   1.000  C
  C81      1.0000 0.25000  0.25000  0.25000  Biso   1.000  C
  C82      1.0000 0.75000  0.75000  0.75000  Biso   1.000  C
  C83      1.0000 0.36605  0.36605  0.07323  Biso   1.000  C
  C84      1.0000 0.36605  0.36605  0.19467  Biso   1.000  C
  C85      1.0000 0.07323  0.19467  0.36605  Biso   1.000  C
  C86      1.0000 0.19467  0.07323  0.36605  Biso   1.000  C
  C87      1.0000 0.36605  0.07323  0.19467  Biso   1.000  C
  C88      1.0000 0.36605  0.19467  0.07323  Biso   1.000  C
  C89      1.0000 0.07323  0.36605  0.36605  Biso   1.000  C
  C90      1.0000 0.19467  0.36605  0.36605  Biso   1.000  C
  C91      1.0000 0.36605  0.19467  0.36605  Biso   1.000  C
  C92      1.0000 0.36605  0.07323  0.36605  Biso   1.000  C
  C93      1.0000 0.07323  0.36605  0.19467  Biso   1.000  C
  C94      1.0000 0.19467  0.36605  0.07323  Biso   1.000  C
  C95      1.0000 0.63395  0.63395  0.92677  Biso   1.000  C
  C96      1.0000 0.63395  0.63395  0.80533  Biso   1.000  C
  C97      1.0000 0.80533  0.92677  0.63395  Biso   1.000  C
  C98      1.0000 0.92677  0.80533  0.63395  Biso   1.000  C
  C99      1.0000 0.92677  0.63395  0.80533  Biso   1.000  C
  C100     1.0000 0.80533  0.63395  0.92677  Biso   1.000  C
  C101     1.0000 0.63395  0.92677  0.63395  Biso   1.000  C
  C102     1.0000 0.63395  0.80533  0.63395  Biso   1.000  C
  C103     1.0000 0.80533  0.63395  0.63395  Biso   1.000  C
  C104     1.0000 0.92677  0.63395  0.63395  Biso   1.000  C
  C105     1.0000 0.63395  0.92677  0.80533  Biso   1.000  C
  C106     1.0000 0.63395  0.80533  0.92677  Biso   1.000  C
  O1       1.0000 0.47825  0.34601  0.67161  Biso   1.000  O
  O2       1.0000 0.65252  0.34601  0.49734  Biso   1.000  O
  O3       1.0000 0.47825  0.34601  0.49734  Biso   1.000  O
  O4       1.0000 0.47825  0.52028  0.49734  Biso   1.000  O
  O5       1.0000 0.06539  0.93315  0.91021  Biso   1.000  O
  O6       1.0000 0.89112  0.93315  0.08448  Biso   1.000  O
  O7       1.0000 0.06539  0.75888  0.08448  Biso   1.000  O
  O8       1.0000 0.06539  0.93315  0.08448  Biso   1.000  O
  O9       1.0000 0.62022  0.18358  0.85451  Biso   1.000  O
  O10      1.0000 0.83542  0.18358  0.63931  Biso   1.000  O
  O11      1.0000 0.31582  0.48798  0.33491  Biso   1.000  O
  O12      1.0000 0.31582  0.70318  0.33491  Biso   1.000  O
  O13      1.0000 0.31582  0.70318  0.63931  Biso   1.000  O
  O14      1.0000 0.31582  0.48798  0.85451  Biso   1.000  O
  O15      1.0000 0.62022  0.18358  0.33491  Biso   1.000  O
  O16      1.0000 0.83542  0.18358  0.33491  Biso   1.000  O
  O17      1.0000 0.83542  0.48798  0.33491  Biso   1.000  O
  O18      1.0000 0.62022  0.70318  0.33491  Biso   1.000  O
  O19      1.0000 0.31582  0.18358  0.63931  Biso   1.000  O
  O20      1.0000 0.31582  0.18358  0.85451  Biso   1.000  O
  O21      1.0000 0.92342  0.09558  0.72731  Biso   1.000  O
  O22      1.0000 0.70822  0.09558  0.94251  Biso   1.000  O
  O23      1.0000 0.22782  0.57598  0.24691  Biso   1.000  O
  O24      1.0000 0.22782  0.79118  0.24691  Biso   1.000  O
  O25      1.0000 0.22782  0.09558  0.94251  Biso   1.000  O
  O26      1.0000 0.22782  0.09558  0.72731  Biso   1.000  O
  O27      1.0000 0.92342  0.57598  0.24691  Biso   1.000  O
  O28      1.0000 0.70822  0.79118  0.24691  Biso   1.000  O
  O29      1.0000 0.70822  0.09558  0.24691  Biso   1.000  O
  O30      1.0000 0.92342  0.09558  0.24691  Biso   1.000  O
  O31      1.0000 0.22782  0.57598  0.94251  Biso   1.000  O
  O32      1.0000 0.22782  0.79118  0.72731  Biso   1.000  O
  O33      1.0000 0.68222  0.16598  0.82771  Biso   1.000  O
  O34      1.0000 0.80862  0.16598  0.70131  Biso   1.000  O
  O35      1.0000 0.29822  0.54998  0.31731  Biso   1.000  O
  O36      1.0000 0.29822  0.67638  0.31731  Biso   1.000  O
  O37      1.0000 0.29822  0.67638  0.70131  Biso   1.000  O
  O38      1.0000 0.29822  0.54998  0.82771  Biso   1.000  O
  O39      1.0000 0.68222  0.16598  0.31731  Biso   1.000  O
  O40      1.0000 0.80862  0.16598  0.31731  Biso   1.000  O
  O41      1.0000 0.80862  0.54998  0.31731  Biso   1.000  O
  O42      1.0000 0.68222  0.67638  0.31731  Biso   1.000  O
  O43      1.0000 0.29822  0.16598  0.70131  Biso   1.000  O
  O44      1.0000 0.29822  0.16598  0.82771  Biso   1.000  O
  O45      1.0000 0.86142  0.11318  0.75411  Biso   1.000  O
  O46      1.0000 0.73502  0.11318  0.88051  Biso   1.000  O
  O47      1.0000 0.24542  0.60278  0.26451  Biso   1.000  O
  O48      1.0000 0.24542  0.72918  0.26451  Biso   1.000  O
  O49      1.0000 0.24542  0.11318  0.88051  Biso   1.000  O
  O50      1.0000 0.24542  0.11318  0.75411  Biso   1.000  O
  O51      1.0000 0.86142  0.60278  0.26451  Biso   1.000  O
  O52      1.0000 0.73502  0.72918  0.26451  Biso   1.000  O
  O53      1.0000 0.73502  0.11318  0.26451  Biso   1.000  O
  O54      1.0000 0.86142  0.11318  0.26451  Biso   1.000  O
  O55      1.0000 0.24542  0.60278  0.88051  Biso   1.000  O
  O56      1.0000 0.24542  0.72918  0.75411  Biso   1.000  O
  O57      1.0000 0.66042  0.25098  0.67951  Biso   1.000  O
  O58      1.0000 0.71812  0.19328  0.73721  Biso   1.000  O
  O59      1.0000 0.38322  0.52818  0.40231  Biso   1.000  O
  O60      1.0000 0.32552  0.58588  0.34461  Biso   1.000  O
  O61      1.0000 0.38322  0.52818  0.67951  Biso   1.000  O
  O62      1.0000 0.32552  0.58588  0.73721  Biso   1.000  O
  O63      1.0000 0.66042  0.25098  0.40231  Biso   1.000  O
  O64      1.0000 0.71812  0.19328  0.34461  Biso   1.000  O
  O65      1.0000 0.66042  0.52818  0.40231  Biso   1.000  O
  O66      1.0000 0.71812  0.58588  0.34461  Biso   1.000  O
  O67      1.0000 0.38322  0.25098  0.67951  Biso   1.000  O
  O68      1.0000 0.32552  0.19328  0.73721  Biso   1.000  O
  O69      1.0000 0.88322  0.02818  0.90231  Biso   1.000  O
  O70      1.0000 0.82552  0.08588  0.84461  Biso   1.000  O
  O71      1.0000 0.16042  0.75098  0.17951  Biso   1.000  O
  O72      1.0000 0.21812  0.69328  0.23721  Biso   1.000  O
  O73      1.0000 0.16042  0.02818  0.90231  Biso   1.000  O
  O74      1.0000 0.21812  0.08588  0.84461  Biso   1.000  O
  O75      1.0000 0.88322  0.75098  0.17951  Biso   1.000  O
  O76      1.0000 0.82552  0.69328  0.23721  Biso   1.000  O
  O77      1.0000 0.88322  0.02818  0.17951  Biso   1.000  O
  O78      1.0000 0.82552  0.08588  0.23721  Biso   1.000  O
  O79      1.0000 0.16042  0.75098  0.90231  Biso   1.000  O
  O80      1.0000 0.21812  0.69328  0.84461  Biso   1.000  O
  O81      1.0000 0.52182  0.38958  0.54091  Biso   1.000  O
  O82      1.0000 0.02182  0.88958  0.04091  Biso   1.000  O
  O83      1.0000 0.57715  0.27353  0.71768  Biso   1.000  O
  O84      1.0000 0.69859  0.27353  0.59624  Biso   1.000  O
  O85      1.0000 0.40577  0.44491  0.42486  Biso   1.000  O
  O86      1.0000 0.40577  0.56635  0.42486  Biso   1.000  O
  O87      1.0000 0.40577  0.56635  0.59624  Biso   1.000  O
  O88      1.0000 0.40577  0.44491  0.71768  Biso   1.000  O
  O89      1.0000 0.57715  0.27353  0.42486  Biso   1.000  O
  O90      1.0000 0.69859  0.27353  0.42486  Biso   1.000  O
  O91      1.0000 0.69859  0.44491  0.42486  Biso   1.000  O
  O92      1.0000 0.57715  0.56635  0.42486  Biso   1.000  O
  O93      1.0000 0.40577  0.27353  0.59624  Biso   1.000  O
  O94      1.0000 0.40577  0.27353  0.71768  Biso   1.000  O
  O95      1.0000 0.96649  0.00563  0.86414  Biso   1.000  O
  O96      1.0000 0.84505  0.00563  0.98558  Biso   1.000  O
  O97      1.0000 0.13787  0.71281  0.15696  Biso   1.000  O
  O98      1.0000 0.13787  0.83425  0.15696  Biso   1.000  O
  O99      1.0000 0.13787  0.00563  0.98558  Biso   1.000  O
  O100     1.0000 0.13787  0.00563  0.86414  Biso   1.000  O
  O101     1.0000 0.96649  0.71281  0.15696  Biso   1.000  O
  O102     1.0000 0.84505  0.83425  0.15696  Biso   1.000  O
  O103     1.0000 0.84505  0.00563  0.15696  Biso   1.000  O
  O104     1.0000 0.96649  0.00563  0.15696  Biso   1.000  O
  O105     1.0000 0.13787  0.71281  0.98558  Biso   1.000  O
