data_image0
_cell_length_a       18.2751
_cell_length_b       18.2751
_cell_length_c       18.2751
_cell_angle_alpha    60
_cell_angle_beta     60
_cell_angle_gamma    60

_symmetry_space_group_name_H-M    "P 1"
_symmetry_int_tables_number       1

loop_
  _symmetry_equiv_pos_as_xyz
  'x, y, z'

loop_
  _atom_site_label
  _atom_site_occupancy
  _atom_site_fract_x
  _atom_site_fract_y
  _atom_site_fract_z
  _atom_site_thermal_displace_type
  _atom_site_B_iso_or_equiv
  _atom_site_type_symbol
  C1       1.0000 0.29350  0.29349  0.11952  Biso   1.000  C
  C2       1.0000 0.29350  0.29349  0.29349  Biso   1.000  C
  C3       1.0000 0.11953  0.29349  0.29349  Biso   1.000  C
  C4       1.0000 0.29350  0.11952  0.29349  Biso   1.000  C
  C5       1.0000 0.70650  0.70651  0.88048  Biso   1.000  C
  C6       1.0000 0.70650  0.70651  0.70651  Biso   1.000  C
  C7       1.0000 0.70650  0.88048  0.70651  Biso   1.000  C
  C8       1.0000 0.88047  0.70651  0.70651  Biso   1.000  C
  C9       1.0000 0.45530  0.45530  0.93570  Biso   1.000  C
  C10      1.0000 0.45530  0.45530  0.15370  Biso   1.000  C
  C11      1.0000 0.93570  0.15370  0.45530  Biso   1.000  C
  C12      1.0000 0.15370  0.93570  0.45530  Biso   1.000  C
  C13      1.0000 0.45530  0.93570  0.15370  Biso   1.000  C
  C14      1.0000 0.45530  0.15370  0.93570  Biso   1.000  C
  C15      1.0000 0.93570  0.45530  0.45530  Biso   1.000  C
  C16      1.0000 0.15370  0.45530  0.45530  Biso   1.000  C
  C17      1.0000 0.45530  0.15370  0.45530  Biso   1.000  C
  C18      1.0000 0.45530  0.93570  0.45530  Biso   1.000  C
  C19      1.0000 0.93570  0.45530  0.15370  Biso   1.000  C
  C20      1.0000 0.15370  0.45530  0.93570  Biso   1.000  C
  C21      1.0000 0.54470  0.54470  0.06430  Biso   1.000  C
  C22      1.0000 0.54470  0.54470  0.84630  Biso   1.000  C
  C23      1.0000 0.84630  0.06430  0.54470  Biso   1.000  C
  C24      1.0000 0.06430  0.84630  0.54470  Biso   1.000  C
  C25      1.0000 0.06430  0.54470  0.84630  Biso   1.000  C
  C26      1.0000 0.84630  0.54470  0.06430  Biso   1.000  C
  C27      1.0000 0.54470  0.06430  0.54470  Biso   1.000  C
  C28      1.0000 0.54470  0.84630  0.54470  Biso   1.000  C
  C29      1.0000 0.84630  0.54470  0.54470  Biso   1.000  C
  C30      1.0000 0.06430  0.54470  0.54470  Biso   1.000  C
  C31      1.0000 0.54470  0.06430  0.84630  Biso   1.000  C
  C32      1.0000 0.54470  0.84630  0.06430  Biso   1.000  C
  C33      1.0000 0.47331  0.47331  0.96231  Biso   1.000  C
  C34      1.0000 0.47331  0.47331  0.09107  Biso   1.000  C
  C35      1.0000 0.96231  0.09107  0.47331  Biso   1.000  C
  C36      1.0000 0.09107  0.96231  0.47331  Biso   1.000  C
  C37      1.0000 0.47331  0.96231  0.09107  Biso   1.000  C
  C38      1.0000 0.47331  0.09107  0.96231  Biso   1.000  C
  C39      1.0000 0.96231  0.47331  0.47331  Biso   1.000  C
  C40      1.0000 0.09107  0.47331  0.47331  Biso   1.000  C
  C41      1.0000 0.47331  0.09107  0.47331  Biso   1.000  C
  C42      1.0000 0.47331  0.96231  0.47331  Biso   1.000  C
  C43      1.0000 0.96231  0.47331  0.09107  Biso   1.000  C
  C44      1.0000 0.09107  0.47331  0.96231  Biso   1.000  C
  C45      1.0000 0.52669  0.52669  0.03769  Biso   1.000  C
  C46      1.0000 0.52669  0.52669  0.90893  Biso   1.000  C
  C47      1.0000 0.90893  0.03769  0.52669  Biso   1.000  C
  C48      1.0000 0.03769  0.90893  0.52669  Biso   1.000  C
  C49      1.0000 0.03769  0.52669  0.90893  Biso   1.000  C
  C50      1.0000 0.90893  0.52669  0.03769  Biso   1.000  C
  C51      1.0000 0.52669  0.03769  0.52669  Biso   1.000  C
  C52      1.0000 0.52669  0.90893  0.52669  Biso   1.000  C
  C53      1.0000 0.90893  0.52669  0.52669  Biso   1.000  C
  C54      1.0000 0.03769  0.52669  0.52669  Biso   1.000  C
  C55      1.0000 0.52669  0.03769  0.90893  Biso   1.000  C
  C56      1.0000 0.52669  0.90893  0.03769  Biso   1.000  C
  C57      1.0000 0.38853  0.38853  0.11147  Biso   1.000  C
  C58      1.0000 0.44625  0.44625  0.05375  Biso   1.000  C
  C59      1.0000 0.11147  0.11147  0.38853  Biso   1.000  C
  C60      1.0000 0.05375  0.05375  0.44625  Biso   1.000  C
  C61      1.0000 0.38853  0.11147  0.11147  Biso   1.000  C
  C62      1.0000 0.44625  0.05375  0.05375  Biso   1.000  C
  C63      1.0000 0.11147  0.38853  0.38853  Biso   1.000  C
  C64      1.0000 0.05375  0.44625  0.44625  Biso   1.000  C
  C65      1.0000 0.38853  0.11147  0.38853  Biso   1.000  C
  C66      1.0000 0.44625  0.05375  0.44625  Biso   1.000  C
  C67      1.0000 0.11147  0.38853  0.11147  Biso   1.000  C
  C68      1.0000 0.05375  0.44625  0.05375  Biso   1.000  C
  C69      1.0000 0.61147  0.61147  0.88853  Biso   1.000  C
  C70      1.0000 0.55375  0.55375  0.94625  Biso   1.000  C
  C71      1.0000 0.88853  0.88853  0.61147  Biso   1.000  C
  C72      1.0000 0.94625  0.94625  0.55375  Biso   1.000  C
  C73      1.0000 0.88853  0.61147  0.88853  Biso   1.000  C
  C74      1.0000 0.94625  0.55375  0.94625  Biso   1.000  C
  C75      1.0000 0.61147  0.88853  0.61147  Biso   1.000  C
  C76      1.0000 0.55375  0.94625  0.55375  Biso   1.000  C
  C77      1.0000 0.88853  0.61147  0.61147  Biso   1.000  C
  C78      1.0000 0.94625  0.55375  0.55375  Biso   1.000  C
  C79      1.0000 0.61147  0.88853  0.88853  Biso   1.000  C
  C80      1.0000 0.55375  0.94625  0.94625  Biso   1.000  C
  C81      1.0000 0.25000  0.25000  0.25000  Biso   1.000  C
  C82      1.0000 0.75000  0.75000  0.75000  Biso   1.000  C
  C83      1.0000 0.36609  0.36609  0.07299  Biso   1.000  C
  C84      1.0000 0.36609  0.36609  0.19483  Biso   1.000  C
  C85      1.0000 0.07299  0.19483  0.36609  Biso   1.000  C
  C86      1.0000 0.19483  0.07299  0.36609  Biso   1.000  C
  C87      1.0000 0.36609  0.07299  0.19483  Biso   1.000  C
  C88      1.0000 0.36609  0.19483  0.07299  Biso   1.000  C
  C89      1.0000 0.07299  0.36609  0.36609  Biso   1.000  C
  C90      1.0000 0.19483  0.36609  0.36609  Biso   1.000  C
  C91      1.0000 0.36609  0.19483  0.36609  Biso   1.000  C
  C92      1.0000 0.36609  0.07299  0.36609  Biso   1.000  C
  C93      1.0000 0.07299  0.36609  0.19483  Biso   1.000  C
  C94      1.0000 0.19483  0.36609  0.07299  Biso   1.000  C
  C95      1.0000 0.63391  0.63391  0.92701  Biso   1.000  C
  C96      1.0000 0.63391  0.63391  0.80517  Biso   1.000  C
  C97      1.0000 0.80517  0.92701  0.63391  Biso   1.000  C
  C98      1.0000 0.92701  0.80517  0.63391  Biso   1.000  C
  C99      1.0000 0.92701  0.63391  0.80517  Biso   1.000  C
  C100     1.0000 0.80517  0.63391  0.92701  Biso   1.000  C
  C101     1.0000 0.63391  0.92701  0.63391  Biso   1.000  C
  C102     1.0000 0.63391  0.80517  0.63391  Biso   1.000  C
  C103     1.0000 0.80517  0.63391  0.63391  Biso   1.000  C
  C104     1.0000 0.92701  0.63391  0.63391  Biso   1.000  C
  C105     1.0000 0.63391  0.92701  0.80517  Biso   1.000  C
  C106     1.0000 0.63391  0.80517  0.92701  Biso   1.000  C
  O1       1.0000 0.50261  0.52015  0.33509  Biso   1.000  O
  O2       1.0000 0.50261  0.52015  0.50906  Biso   1.000  O
  O3       1.0000 0.32864  0.52015  0.50906  Biso   1.000  O
  O4       1.0000 0.50261  0.34618  0.50906  Biso   1.000  O
  O5       1.0000 0.91561  0.93317  0.09605  Biso   1.000  O
  O6       1.0000 0.91561  0.93317  0.92208  Biso   1.000  O
  O7       1.0000 0.91561  0.10714  0.92208  Biso   1.000  O
  O8       1.0000 0.08958  0.93317  0.92208  Biso   1.000  O
  O9       1.0000 0.66441  0.68196  0.15127  Biso   1.000  O
  O10      1.0000 0.66441  0.68196  0.36927  Biso   1.000  O
  O11      1.0000 0.14481  0.38036  0.67087  Biso   1.000  O
  O12      1.0000 0.36281  0.16236  0.67087  Biso   1.000  O
  O13      1.0000 0.66441  0.16236  0.36927  Biso   1.000  O
  O14      1.0000 0.66441  0.38036  0.15127  Biso   1.000  O
  O15      1.0000 0.14481  0.68196  0.67087  Biso   1.000  O
  O16      1.0000 0.36281  0.68196  0.67087  Biso   1.000  O
  O17      1.0000 0.66441  0.38036  0.67087  Biso   1.000  O
  O18      1.0000 0.66441  0.16236  0.67087  Biso   1.000  O
  O19      1.0000 0.14481  0.68196  0.36927  Biso   1.000  O
  O20      1.0000 0.36281  0.68196  0.15127  Biso   1.000  O
  O21      1.0000 0.75381  0.77136  0.27987  Biso   1.000  O
  O22      1.0000 0.75381  0.77136  0.06187  Biso   1.000  O
  O23      1.0000 0.05541  0.29096  0.76027  Biso   1.000  O
  O24      1.0000 0.27341  0.07296  0.76027  Biso   1.000  O
  O25      1.0000 0.27341  0.77136  0.06187  Biso   1.000  O
  O26      1.0000 0.05541  0.77136  0.27987  Biso   1.000  O
  O27      1.0000 0.75381  0.29096  0.76027  Biso   1.000  O
  O28      1.0000 0.75381  0.07296  0.76027  Biso   1.000  O
  O29      1.0000 0.05541  0.77136  0.76027  Biso   1.000  O
  O30      1.0000 0.27341  0.77136  0.76027  Biso   1.000  O
  O31      1.0000 0.75381  0.29096  0.06187  Biso   1.000  O
  O32      1.0000 0.75381  0.07296  0.27987  Biso   1.000  O
  O33      1.0000 0.68242  0.69997  0.17788  Biso   1.000  O
  O34      1.0000 0.68242  0.69997  0.30664  Biso   1.000  O
  O35      1.0000 0.17142  0.31773  0.68888  Biso   1.000  O
  O36      1.0000 0.30018  0.18897  0.68888  Biso   1.000  O
  O37      1.0000 0.68242  0.18897  0.30664  Biso   1.000  O
  O38      1.0000 0.68242  0.31773  0.17788  Biso   1.000  O
  O39      1.0000 0.17142  0.69997  0.68888  Biso   1.000  O
  O40      1.0000 0.30018  0.69997  0.68888  Biso   1.000  O
  O41      1.0000 0.68242  0.31773  0.68888  Biso   1.000  O
  O42      1.0000 0.68242  0.18897  0.68888  Biso   1.000  O
  O43      1.0000 0.17142  0.69997  0.30664  Biso   1.000  O
  O44      1.0000 0.30018  0.69997  0.17788  Biso   1.000  O
  O45      1.0000 0.73580  0.75335  0.25326  Biso   1.000  O
  O46      1.0000 0.73580  0.75335  0.12450  Biso   1.000  O
  O47      1.0000 0.11804  0.26435  0.74226  Biso   1.000  O
  O48      1.0000 0.24680  0.13559  0.74226  Biso   1.000  O
  O49      1.0000 0.24680  0.75335  0.12450  Biso   1.000  O
  O50      1.0000 0.11804  0.75335  0.25326  Biso   1.000  O
  O51      1.0000 0.73580  0.26435  0.74226  Biso   1.000  O
  O52      1.0000 0.73580  0.13559  0.74226  Biso   1.000  O
  O53      1.0000 0.11804  0.75335  0.74226  Biso   1.000  O
  O54      1.0000 0.24680  0.75335  0.74226  Biso   1.000  O
  O55      1.0000 0.73580  0.26435  0.12450  Biso   1.000  O
  O56      1.0000 0.73580  0.13559  0.25326  Biso   1.000  O
  O57      1.0000 0.59764  0.61519  0.32704  Biso   1.000  O
  O58      1.0000 0.65536  0.67291  0.26932  Biso   1.000  O
  O59      1.0000 0.32058  0.33813  0.60410  Biso   1.000  O
  O60      1.0000 0.26286  0.28041  0.66182  Biso   1.000  O
  O61      1.0000 0.59764  0.33813  0.32704  Biso   1.000  O
  O62      1.0000 0.65536  0.28041  0.26932  Biso   1.000  O
  O63      1.0000 0.32058  0.61519  0.60410  Biso   1.000  O
  O64      1.0000 0.26286  0.67291  0.66182  Biso   1.000  O
  O65      1.0000 0.59764  0.33813  0.60410  Biso   1.000  O
  O66      1.0000 0.65536  0.28041  0.66182  Biso   1.000  O
  O67      1.0000 0.32058  0.61519  0.32704  Biso   1.000  O
  O68      1.0000 0.26286  0.67291  0.26932  Biso   1.000  O
  O69      1.0000 0.82058  0.83813  0.10410  Biso   1.000  O
  O70      1.0000 0.76286  0.78041  0.16182  Biso   1.000  O
  O71      1.0000 0.09764  0.11519  0.82704  Biso   1.000  O
  O72      1.0000 0.15536  0.17291  0.76932  Biso   1.000  O
  O73      1.0000 0.09764  0.83813  0.10410  Biso   1.000  O
  O74      1.0000 0.15536  0.78041  0.16182  Biso   1.000  O
  O75      1.0000 0.82058  0.11519  0.82704  Biso   1.000  O
  O76      1.0000 0.76286  0.17291  0.76932  Biso   1.000  O
  O77      1.0000 0.09764  0.83813  0.82704  Biso   1.000  O
  O78      1.0000 0.15536  0.78041  0.76932  Biso   1.000  O
  O79      1.0000 0.82058  0.11519  0.10410  Biso   1.000  O
  O80      1.0000 0.76286  0.17291  0.16182  Biso   1.000  O
  O81      1.0000 0.45911  0.47666  0.46557  Biso   1.000  O
  O82      1.0000 0.95911  0.97666  0.96557  Biso   1.000  O
  O83      1.0000 0.57520  0.59275  0.28856  Biso   1.000  O
  O84      1.0000 0.57520  0.59275  0.41040  Biso   1.000  O
  O85      1.0000 0.28210  0.42149  0.58166  Biso   1.000  O
  O86      1.0000 0.40394  0.29965  0.58166  Biso   1.000  O
  O87      1.0000 0.57520  0.29965  0.41040  Biso   1.000  O
  O88      1.0000 0.57520  0.42149  0.28856  Biso   1.000  O
  O89      1.0000 0.28210  0.59275  0.58166  Biso   1.000  O
  O90      1.0000 0.40394  0.59275  0.58166  Biso   1.000  O
  O91      1.0000 0.57520  0.42149  0.58166  Biso   1.000  O
  O92      1.0000 0.57520  0.29965  0.58166  Biso   1.000  O
  O93      1.0000 0.28210  0.59275  0.41040  Biso   1.000  O
  O94      1.0000 0.40394  0.59275  0.28856  Biso   1.000  O
  O95      1.0000 0.84302  0.86057  0.14258  Biso   1.000  O
  O96      1.0000 0.84302  0.86057  0.02074  Biso   1.000  O
  O97      1.0000 0.01428  0.15367  0.84948  Biso   1.000  O
  O98      1.0000 0.13612  0.03183  0.84948  Biso   1.000  O
  O99      1.0000 0.13612  0.86057  0.02074  Biso   1.000  O
  O100     1.0000 0.01428  0.86057  0.14258  Biso   1.000  O
  O101     1.0000 0.84302  0.15367  0.84948  Biso   1.000  O
  O102     1.0000 0.84302  0.03183  0.84948  Biso   1.000  O
  O103     1.0000 0.01428  0.86057  0.84948  Biso   1.000  O
  O104     1.0000 0.13612  0.86057  0.84948  Biso   1.000  O
  O105     1.0000 0.84302  0.15367  0.02074  Biso   1.000  O
