data_image0
_cell_length_a       18.2662
_cell_length_b       18.2662
_cell_length_c       18.2662
_cell_angle_alpha    60
_cell_angle_beta     60
_cell_angle_gamma    60

_symmetry_space_group_name_H-M    "P 1"
_symmetry_int_tables_number       1

loop_
  _symmetry_equiv_pos_as_xyz
  'x, y, z'

loop_
  _atom_site_label
  _atom_site_occupancy
  _atom_site_fract_x
  _atom_site_fract_y
  _atom_site_fract_z
  _atom_site_thermal_displace_type
  _atom_site_B_iso_or_equiv
  _atom_site_type_symbol
  Zn1      1.0000 0.29353  0.29352  0.11943  Biso   1.000  Zn
  Zn2      1.0000 0.29353  0.29352  0.29352  Biso   1.000  Zn
  Zn3      1.0000 0.11944  0.29352  0.29352  Biso   1.000  Zn
  Zn4      1.0000 0.29353  0.11943  0.29352  Biso   1.000  Zn
  Zn5      1.0000 0.70647  0.70648  0.88057  Biso   1.000  Zn
  Zn6      1.0000 0.70647  0.70648  0.70648  Biso   1.000  Zn
  Zn7      1.0000 0.70647  0.88057  0.70648  Biso   1.000  Zn
  Zn8      1.0000 0.88056  0.70648  0.70648  Biso   1.000  Zn
  H1       1.0000 0.45570  0.45570  0.93590  Biso   1.000  H
  H2       1.0000 0.45570  0.45570  0.15270  Biso   1.000  H
  H3       1.0000 0.93590  0.15270  0.45570  Biso   1.000  H
  H4       1.0000 0.15270  0.93590  0.45570  Biso   1.000  H
  H5       1.0000 0.45570  0.93590  0.15270  Biso   1.000  H
  H6       1.0000 0.45570  0.15270  0.93590  Biso   1.000  H
  H7       1.0000 0.93590  0.45570  0.45570  Biso   1.000  H
  H8       1.0000 0.15270  0.45570  0.45570  Biso   1.000  H
  H9       1.0000 0.45570  0.15270  0.45570  Biso   1.000  H
  H10      1.0000 0.45570  0.93590  0.45570  Biso   1.000  H
  H11      1.0000 0.93590  0.45570  0.15270  Biso   1.000  H
  H12      1.0000 0.15270  0.45570  0.93590  Biso   1.000  H
  H13      1.0000 0.54430  0.54430  0.06410  Biso   1.000  H
  H14      1.0000 0.54430  0.54430  0.84730  Biso   1.000  H
  H15      1.0000 0.84730  0.06410  0.54430  Biso   1.000  H
  H16      1.0000 0.06410  0.84730  0.54430  Biso   1.000  H
  H17      1.0000 0.06410  0.54430  0.84730  Biso   1.000  H
  H18      1.0000 0.84730  0.54430  0.06410  Biso   1.000  H
  H19      1.0000 0.54430  0.06410  0.54430  Biso   1.000  H
  H20      1.0000 0.54430  0.84730  0.54430  Biso   1.000  H
  H21      1.0000 0.84730  0.54430  0.54430  Biso   1.000  H
  H22      1.0000 0.06410  0.54430  0.54430  Biso   1.000  H
  H23      1.0000 0.54430  0.06410  0.84730  Biso   1.000  H
  H24      1.0000 0.54430  0.84730  0.06410  Biso   1.000  H
  C1       1.0000 0.47342  0.47342  0.96246  Biso   1.000  C
  C2       1.0000 0.47342  0.47342  0.09070  Biso   1.000  C
  C3       1.0000 0.96246  0.09070  0.47342  Biso   1.000  C
  C4       1.0000 0.09070  0.96246  0.47342  Biso   1.000  C
  C5       1.0000 0.47342  0.96246  0.09070  Biso   1.000  C
  C6       1.0000 0.47342  0.09070  0.96246  Biso   1.000  C
  C7       1.0000 0.96246  0.47342  0.47342  Biso   1.000  C
  C8       1.0000 0.09070  0.47342  0.47342  Biso   1.000  C
  C9       1.0000 0.47342  0.09070  0.47342  Biso   1.000  C
  C10      1.0000 0.47342  0.96246  0.47342  Biso   1.000  C
  C11      1.0000 0.96246  0.47342  0.09070  Biso   1.000  C
  C12      1.0000 0.09070  0.47342  0.96246  Biso   1.000  C
  C13      1.0000 0.52658  0.52658  0.03754  Biso   1.000  C
  C14      1.0000 0.52658  0.52658  0.90930  Biso   1.000  C
  C15      1.0000 0.90930  0.03754  0.52658  Biso   1.000  C
  C16      1.0000 0.03754  0.90930  0.52658  Biso   1.000  C
  C17      1.0000 0.03754  0.52658  0.90930  Biso   1.000  C
  C18      1.0000 0.90930  0.52658  0.03754  Biso   1.000  C
  C19      1.0000 0.52658  0.03754  0.52658  Biso   1.000  C
  C20      1.0000 0.52658  0.90930  0.52658  Biso   1.000  C
  C21      1.0000 0.90930  0.52658  0.52658  Biso   1.000  C
  C22      1.0000 0.03754  0.52658  0.52658  Biso   1.000  C
  C23      1.0000 0.52658  0.03754  0.90930  Biso   1.000  C
  C24      1.0000 0.52658  0.90930  0.03754  Biso   1.000  C
  C25      1.0000 0.38858  0.38858  0.11142  Biso   1.000  C
  C26      1.0000 0.44625  0.44625  0.05375  Biso   1.000  C
  C27      1.0000 0.11142  0.11142  0.38858  Biso   1.000  C
  C28      1.0000 0.05375  0.05375  0.44625  Biso   1.000  C
  C29      1.0000 0.38858  0.11142  0.11142  Biso   1.000  C
  C30      1.0000 0.44625  0.05375  0.05375  Biso   1.000  C
  C31      1.0000 0.11142  0.38858  0.38858  Biso   1.000  C
  C32      1.0000 0.05375  0.44625  0.44625  Biso   1.000  C
  C33      1.0000 0.38858  0.11142  0.38858  Biso   1.000  C
  C34      1.0000 0.44625  0.05375  0.44625  Biso   1.000  C
  C35      1.0000 0.11142  0.38858  0.11142  Biso   1.000  C
  C36      1.0000 0.05375  0.44625  0.05375  Biso   1.000  C
  C37      1.0000 0.61142  0.61142  0.88858  Biso   1.000  C
  C38      1.0000 0.55375  0.55375  0.94625  Biso   1.000  C
  C39      1.0000 0.88858  0.88858  0.61142  Biso   1.000  C
  C40      1.0000 0.94625  0.94625  0.55375  Biso   1.000  C
  C41      1.0000 0.88858  0.61142  0.88858  Biso   1.000  C
  C42      1.0000 0.94625  0.55375  0.94625  Biso   1.000  C
  C43      1.0000 0.61142  0.88858  0.61142  Biso   1.000  C
  C44      1.0000 0.55375  0.94625  0.55375  Biso   1.000  C
  C45      1.0000 0.88858  0.61142  0.61142  Biso   1.000  C
  C46      1.0000 0.94625  0.55375  0.55375  Biso   1.000  C
  C47      1.0000 0.61142  0.88858  0.88858  Biso   1.000  C
  C48      1.0000 0.55375  0.94625  0.94625  Biso   1.000  C
  O1       1.0000 0.25000  0.25000  0.25000  Biso   1.000  O
  O2       1.0000 0.75000  0.75000  0.75000  Biso   1.000  O
  O3       1.0000 0.36617  0.36617  0.07287  Biso   1.000  O
  O4       1.0000 0.36617  0.36617  0.19479  Biso   1.000  O
  O5       1.0000 0.07287  0.19479  0.36617  Biso   1.000  O
  O6       1.0000 0.19479  0.07287  0.36617  Biso   1.000  O
  O7       1.0000 0.36617  0.07287  0.19479  Biso   1.000  O
  O8       1.0000 0.36617  0.19479  0.07287  Biso   1.000  O
  O9       1.0000 0.07287  0.36617  0.36617  Biso   1.000  O
  O10      1.0000 0.19479  0.36617  0.36617  Biso   1.000  O
  O11      1.0000 0.36617  0.19479  0.36617  Biso   1.000  O
  O12      1.0000 0.36617  0.07287  0.36617  Biso   1.000  O
  O13      1.0000 0.07287  0.36617  0.19479  Biso   1.000  O
  O14      1.0000 0.19479  0.36617  0.07287  Biso   1.000  O
  O15      1.0000 0.63383  0.63383  0.92713  Biso   1.000  O
  O16      1.0000 0.63383  0.63383  0.80521  Biso   1.000  O
  O17      1.0000 0.80521  0.92713  0.63383  Biso   1.000  O
  O18      1.0000 0.92713  0.80521  0.63383  Biso   1.000  O
  O19      1.0000 0.92713  0.63383  0.80521  Biso   1.000  O
  O20      1.0000 0.80521  0.63383  0.92713  Biso   1.000  O
  O21      1.0000 0.63383  0.92713  0.63383  Biso   1.000  O
  O22      1.0000 0.63383  0.80521  0.63383  Biso   1.000  O
  O23      1.0000 0.80521  0.63383  0.63383  Biso   1.000  O
  O24      1.0000 0.92713  0.63383  0.63383  Biso   1.000  O
  O25      1.0000 0.63383  0.92713  0.80521  Biso   1.000  O
  O26      1.0000 0.63383  0.80521  0.92713  Biso   1.000  O
  Zn9      1.0000 0.47746  0.34544  0.67050  Biso   1.000  Zn
  Zn10     1.0000 0.65155  0.34544  0.49641  Biso   1.000  Zn
  Zn11     1.0000 0.47746  0.34544  0.49641  Biso   1.000  Zn
  Zn12     1.0000 0.47746  0.51953  0.49641  Biso   1.000  Zn
  Zn13     1.0000 0.06450  0.93248  0.90936  Biso   1.000  Zn
  Zn14     1.0000 0.89041  0.93248  0.08345  Biso   1.000  Zn
  Zn15     1.0000 0.06450  0.75839  0.08345  Biso   1.000  Zn
  Zn16     1.0000 0.06450  0.93248  0.08345  Biso   1.000  Zn
  H25      1.0000 0.61828  0.18326  0.85403  Biso   1.000  H
  H26      1.0000 0.83508  0.18326  0.63723  Biso   1.000  H
  H27      1.0000 0.31528  0.48626  0.33423  Biso   1.000  H
  H28      1.0000 0.31528  0.70306  0.33423  Biso   1.000  H
  H29      1.0000 0.31528  0.70306  0.63723  Biso   1.000  H
  H30      1.0000 0.31528  0.48626  0.85403  Biso   1.000  H
  H31      1.0000 0.61828  0.18326  0.33423  Biso   1.000  H
  H32      1.0000 0.83508  0.18326  0.33423  Biso   1.000  H
  H33      1.0000 0.83508  0.48626  0.33423  Biso   1.000  H
  H34      1.0000 0.61828  0.70306  0.33423  Biso   1.000  H
  H35      1.0000 0.31528  0.18326  0.63723  Biso   1.000  H
  H36      1.0000 0.31528  0.18326  0.85403  Biso   1.000  H
  H37      1.0000 0.92368  0.09466  0.72583  Biso   1.000  H
  H38      1.0000 0.70688  0.09466  0.94263  Biso   1.000  H
  H39      1.0000 0.22668  0.57486  0.24563  Biso   1.000  H
  H40      1.0000 0.22668  0.79166  0.24563  Biso   1.000  H
  H41      1.0000 0.22668  0.09466  0.94263  Biso   1.000  H
  H42      1.0000 0.22668  0.09466  0.72583  Biso   1.000  H
  H43      1.0000 0.92368  0.57486  0.24563  Biso   1.000  H
  H44      1.0000 0.70688  0.79166  0.24563  Biso   1.000  H
  H45      1.0000 0.70688  0.09466  0.24563  Biso   1.000  H
  H46      1.0000 0.92368  0.09466  0.24563  Biso   1.000  H
  H47      1.0000 0.22668  0.57486  0.94263  Biso   1.000  H
  H48      1.0000 0.22668  0.79166  0.72583  Biso   1.000  H
  C49      1.0000 0.68028  0.16554  0.82747  Biso   1.000  C
  C50      1.0000 0.80852  0.16554  0.69923  Biso   1.000  C
  C51      1.0000 0.29756  0.54826  0.31651  Biso   1.000  C
  C52      1.0000 0.29756  0.67650  0.31651  Biso   1.000  C
  C53      1.0000 0.29756  0.67650  0.69923  Biso   1.000  C
  C54      1.0000 0.29756  0.54826  0.82747  Biso   1.000  C
  C55      1.0000 0.68028  0.16554  0.31651  Biso   1.000  C
  C56      1.0000 0.80852  0.16554  0.31651  Biso   1.000  C
  C57      1.0000 0.80852  0.54826  0.31651  Biso   1.000  C
  C58      1.0000 0.68028  0.67650  0.31651  Biso   1.000  C
  C59      1.0000 0.29756  0.16554  0.69923  Biso   1.000  C
  C60      1.0000 0.29756  0.16554  0.82747  Biso   1.000  C
  C61      1.0000 0.86168  0.11238  0.75239  Biso   1.000  C
  C62      1.0000 0.73344  0.11238  0.88063  Biso   1.000  C
  C63      1.0000 0.24440  0.60142  0.26335  Biso   1.000  C
  C64      1.0000 0.24440  0.72966  0.26335  Biso   1.000  C
  C65      1.0000 0.24440  0.11238  0.88063  Biso   1.000  C
  C66      1.0000 0.24440  0.11238  0.75239  Biso   1.000  C
  C67      1.0000 0.86168  0.60142  0.26335  Biso   1.000  C
  C68      1.0000 0.73344  0.72966  0.26335  Biso   1.000  C
  C69      1.0000 0.73344  0.11238  0.26335  Biso   1.000  C
  C70      1.0000 0.86168  0.11238  0.26335  Biso   1.000  C
  C71      1.0000 0.24440  0.60142  0.88063  Biso   1.000  C
  C72      1.0000 0.24440  0.72966  0.75239  Biso   1.000  C
  C73      1.0000 0.65956  0.25038  0.67851  Biso   1.000  C
  C74      1.0000 0.71723  0.19271  0.73618  Biso   1.000  C
  C75      1.0000 0.38240  0.52754  0.40135  Biso   1.000  C
  C76      1.0000 0.32473  0.58521  0.34368  Biso   1.000  C
  C77      1.0000 0.38240  0.52754  0.67851  Biso   1.000  C
  C78      1.0000 0.32473  0.58521  0.73618  Biso   1.000  C
  C79      1.0000 0.65956  0.25038  0.40135  Biso   1.000  C
  C80      1.0000 0.71723  0.19271  0.34368  Biso   1.000  C
  C81      1.0000 0.65956  0.52754  0.40135  Biso   1.000  C
  C82      1.0000 0.71723  0.58521  0.34368  Biso   1.000  C
  C83      1.0000 0.38240  0.25038  0.67851  Biso   1.000  C
  C84      1.0000 0.32473  0.19271  0.73618  Biso   1.000  C
  C85      1.0000 0.88240  0.02754  0.90135  Biso   1.000  C
  C86      1.0000 0.82473  0.08521  0.84368  Biso   1.000  C
  C87      1.0000 0.15956  0.75038  0.17851  Biso   1.000  C
  C88      1.0000 0.21723  0.69271  0.23618  Biso   1.000  C
  C89      1.0000 0.15956  0.02754  0.90135  Biso   1.000  C
  C90      1.0000 0.21723  0.08521  0.84368  Biso   1.000  C
  C91      1.0000 0.88240  0.75038  0.17851  Biso   1.000  C
  C92      1.0000 0.82473  0.69271  0.23618  Biso   1.000  C
  C93      1.0000 0.88240  0.02754  0.17851  Biso   1.000  C
  C94      1.0000 0.82473  0.08521  0.23618  Biso   1.000  C
  C95      1.0000 0.15956  0.75038  0.90135  Biso   1.000  C
  C96      1.0000 0.21723  0.69271  0.84368  Biso   1.000  C
  O27      1.0000 0.52098  0.38896  0.53993  Biso   1.000  O
  O28      1.0000 0.02098  0.88896  0.03993  Biso   1.000  O
  O29      1.0000 0.57619  0.27279  0.71706  Biso   1.000  O
  O30      1.0000 0.69811  0.27279  0.59514  Biso   1.000  O
  O31      1.0000 0.40481  0.44417  0.42376  Biso   1.000  O
  O32      1.0000 0.40481  0.56609  0.42376  Biso   1.000  O
  O33      1.0000 0.40481  0.56609  0.59514  Biso   1.000  O
  O34      1.0000 0.40481  0.44417  0.71706  Biso   1.000  O
  O35      1.0000 0.57619  0.27279  0.42376  Biso   1.000  O
  O36      1.0000 0.69811  0.27279  0.42376  Biso   1.000  O
  O37      1.0000 0.69811  0.44417  0.42376  Biso   1.000  O
  O38      1.0000 0.57619  0.56609  0.42376  Biso   1.000  O
  O39      1.0000 0.40481  0.27279  0.59514  Biso   1.000  O
  O40      1.0000 0.40481  0.27279  0.71706  Biso   1.000  O
  O41      1.0000 0.96577  0.00513  0.86280  Biso   1.000  O
  O42      1.0000 0.84385  0.00513  0.98472  Biso   1.000  O
  O43      1.0000 0.13715  0.71183  0.15610  Biso   1.000  O
  O44      1.0000 0.13715  0.83375  0.15610  Biso   1.000  O
  O45      1.0000 0.13715  0.00513  0.98472  Biso   1.000  O
  O46      1.0000 0.13715  0.00513  0.86280  Biso   1.000  O
  O47      1.0000 0.96577  0.71183  0.15610  Biso   1.000  O
  O48      1.0000 0.84385  0.83375  0.15610  Biso   1.000  O
  O49      1.0000 0.84385  0.00513  0.15610  Biso   1.000  O
  O50      1.0000 0.96577  0.00513  0.15610  Biso   1.000  O
  O51      1.0000 0.13715  0.71183  0.98472  Biso   1.000  O
