data_image0
_cell_length_a       18.228
_cell_length_b       18.228
_cell_length_c       18.228
_cell_angle_alpha    60
_cell_angle_beta     60
_cell_angle_gamma    60

_symmetry_space_group_name_H-M    "P 1"
_symmetry_int_tables_number       1

loop_
  _symmetry_equiv_pos_as_xyz
  'x, y, z'

loop_
  _atom_site_label
  _atom_site_occupancy
  _atom_site_fract_x
  _atom_site_fract_y
  _atom_site_fract_z
  _atom_site_thermal_displace_type
  _atom_site_B_iso_or_equiv
  _atom_site_type_symbol
  C1       1.0000 0.29358  0.29359  0.11924  Biso   1.000  C
  C2       1.0000 0.29358  0.29359  0.29359  Biso   1.000  C
  C3       1.0000 0.11923  0.29359  0.29359  Biso   1.000  C
  C4       1.0000 0.29358  0.11924  0.29359  Biso   1.000  C
  C5       1.0000 0.70642  0.70641  0.88076  Biso   1.000  C
  C6       1.0000 0.70642  0.70641  0.70641  Biso   1.000  C
  C7       1.0000 0.70642  0.88076  0.70641  Biso   1.000  C
  C8       1.0000 0.88077  0.70641  0.70641  Biso   1.000  C
  C9       1.0000 0.45570  0.45570  0.93670  Biso   1.000  C
  C10      1.0000 0.45570  0.45570  0.15190  Biso   1.000  C
  C11      1.0000 0.93670  0.15190  0.45570  Biso   1.000  C
  C12      1.0000 0.15190  0.93670  0.45570  Biso   1.000  C
  C13      1.0000 0.45570  0.93670  0.15190  Biso   1.000  C
  C14      1.0000 0.45570  0.15190  0.93670  Biso   1.000  C
  C15      1.0000 0.93670  0.45570  0.45570  Biso   1.000  C
  C16      1.0000 0.15190  0.45570  0.45570  Biso   1.000  C
  C17      1.0000 0.45570  0.15190  0.45570  Biso   1.000  C
  C18      1.0000 0.45570  0.93670  0.45570  Biso   1.000  C
  C19      1.0000 0.93670  0.45570  0.15190  Biso   1.000  C
  C20      1.0000 0.15190  0.45570  0.93670  Biso   1.000  C
  C21      1.0000 0.54430  0.54430  0.06330  Biso   1.000  C
  C22      1.0000 0.54430  0.54430  0.84810  Biso   1.000  C
  C23      1.0000 0.84810  0.06330  0.54430  Biso   1.000  C
  C24      1.0000 0.06330  0.84810  0.54430  Biso   1.000  C
  C25      1.0000 0.06330  0.54430  0.84810  Biso   1.000  C
  C26      1.0000 0.84810  0.54430  0.06330  Biso   1.000  C
  C27      1.0000 0.54430  0.06330  0.54430  Biso   1.000  C
  C28      1.0000 0.54430  0.84810  0.54430  Biso   1.000  C
  C29      1.0000 0.84810  0.54430  0.54430  Biso   1.000  C
  C30      1.0000 0.06330  0.54430  0.54430  Biso   1.000  C
  C31      1.0000 0.54430  0.06330  0.84810  Biso   1.000  C
  C32      1.0000 0.54430  0.84810  0.06330  Biso   1.000  C
  C33      1.0000 0.47340  0.47340  0.96356  Biso   1.000  C
  C34      1.0000 0.47340  0.47340  0.08964  Biso   1.000  C
  C35      1.0000 0.96356  0.08964  0.47340  Biso   1.000  C
  C36      1.0000 0.08964  0.96356  0.47340  Biso   1.000  C
  C37      1.0000 0.47340  0.96356  0.08964  Biso   1.000  C
  C38      1.0000 0.47340  0.08964  0.96356  Biso   1.000  C
  C39      1.0000 0.96356  0.47340  0.47340  Biso   1.000  C
  C40      1.0000 0.08964  0.47340  0.47340  Biso   1.000  C
  C41      1.0000 0.47340  0.08964  0.47340  Biso   1.000  C
  C42      1.0000 0.47340  0.96356  0.47340  Biso   1.000  C
  C43      1.0000 0.96356  0.47340  0.08964  Biso   1.000  C
  C44      1.0000 0.08964  0.47340  0.96356  Biso   1.000  C
  C45      1.0000 0.52660  0.52660  0.03644  Biso   1.000  C
  C46      1.0000 0.52660  0.52660  0.91036  Biso   1.000  C
  C47      1.0000 0.91036  0.03644  0.52660  Biso   1.000  C
  C48      1.0000 0.03644  0.91036  0.52660  Biso   1.000  C
  C49      1.0000 0.03644  0.52660  0.91036  Biso   1.000  C
  C50      1.0000 0.91036  0.52660  0.03644  Biso   1.000  C
  C51      1.0000 0.52660  0.03644  0.52660  Biso   1.000  C
  C52      1.0000 0.52660  0.91036  0.52660  Biso   1.000  C
  C53      1.0000 0.91036  0.52660  0.52660  Biso   1.000  C
  C54      1.0000 0.03644  0.52660  0.52660  Biso   1.000  C
  C55      1.0000 0.52660  0.03644  0.91036  Biso   1.000  C
  C56      1.0000 0.52660  0.91036  0.03644  Biso   1.000  C
  C57      1.0000 0.38850  0.38850  0.11150  Biso   1.000  C
  C58      1.0000 0.44610  0.44610  0.05390  Biso   1.000  C
  C59      1.0000 0.11150  0.11150  0.38850  Biso   1.000  C
  C60      1.0000 0.05390  0.05390  0.44610  Biso   1.000  C
  C61      1.0000 0.38850  0.11150  0.11150  Biso   1.000  C
  C62      1.0000 0.44610  0.05390  0.05390  Biso   1.000  C
  C63      1.0000 0.11150  0.38850  0.38850  Biso   1.000  C
  C64      1.0000 0.05390  0.44610  0.44610  Biso   1.000  C
  C65      1.0000 0.38850  0.11150  0.38850  Biso   1.000  C
  C66      1.0000 0.44610  0.05390  0.44610  Biso   1.000  C
  C67      1.0000 0.11150  0.38850  0.11150  Biso   1.000  C
  C68      1.0000 0.05390  0.44610  0.05390  Biso   1.000  C
  C69      1.0000 0.61150  0.61150  0.88850  Biso   1.000  C
  C70      1.0000 0.55390  0.55390  0.94610  Biso   1.000  C
  C71      1.0000 0.88850  0.88850  0.61150  Biso   1.000  C
  C72      1.0000 0.94610  0.94610  0.55390  Biso   1.000  C
  C73      1.0000 0.88850  0.61150  0.88850  Biso   1.000  C
  C74      1.0000 0.94610  0.55390  0.94610  Biso   1.000  C
  C75      1.0000 0.61150  0.88850  0.61150  Biso   1.000  C
  C76      1.0000 0.55390  0.94610  0.55390  Biso   1.000  C
  C77      1.0000 0.88850  0.61150  0.61150  Biso   1.000  C
  C78      1.0000 0.94610  0.55390  0.55390  Biso   1.000  C
  C79      1.0000 0.61150  0.88850  0.88850  Biso   1.000  C
  C80      1.0000 0.55390  0.94610  0.94610  Biso   1.000  C
  C81      1.0000 0.25000  0.25000  0.25000  Biso   1.000  C
  C82      1.0000 0.75000  0.75000  0.75000  Biso   1.000  C
  C83      1.0000 0.36610  0.36610  0.07322  Biso   1.000  C
  C84      1.0000 0.36610  0.36610  0.19458  Biso   1.000  C
  C85      1.0000 0.07322  0.19458  0.36610  Biso   1.000  C
  C86      1.0000 0.19458  0.07322  0.36610  Biso   1.000  C
  C87      1.0000 0.36610  0.07322  0.19458  Biso   1.000  C
  C88      1.0000 0.36610  0.19458  0.07322  Biso   1.000  C
  C89      1.0000 0.07322  0.36610  0.36610  Biso   1.000  C
  C90      1.0000 0.19458  0.36610  0.36610  Biso   1.000  C
  C91      1.0000 0.36610  0.19458  0.36610  Biso   1.000  C
  C92      1.0000 0.36610  0.07322  0.36610  Biso   1.000  C
  C93      1.0000 0.07322  0.36610  0.19458  Biso   1.000  C
  C94      1.0000 0.19458  0.36610  0.07322  Biso   1.000  C
  C95      1.0000 0.63390  0.63390  0.92678  Biso   1.000  C
  C96      1.0000 0.63390  0.63390  0.80542  Biso   1.000  C
  C97      1.0000 0.80542  0.92678  0.63390  Biso   1.000  C
  C98      1.0000 0.92678  0.80542  0.63390  Biso   1.000  C
  C99      1.0000 0.92678  0.63390  0.80542  Biso   1.000  C
  C100     1.0000 0.80542  0.63390  0.92678  Biso   1.000  C
  C101     1.0000 0.63390  0.92678  0.63390  Biso   1.000  C
  C102     1.0000 0.63390  0.80542  0.63390  Biso   1.000  C
  C103     1.0000 0.80542  0.63390  0.63390  Biso   1.000  C
  C104     1.0000 0.92678  0.63390  0.63390  Biso   1.000  C
  C105     1.0000 0.63390  0.92678  0.80542  Biso   1.000  C
  C106     1.0000 0.63390  0.80542  0.92678  Biso   1.000  C
  O1       1.0000 0.47846  0.34616  0.67190  Biso   1.000  O
  O2       1.0000 0.65281  0.34616  0.49755  Biso   1.000  O
  O3       1.0000 0.47846  0.34616  0.49755  Biso   1.000  O
  O4       1.0000 0.47846  0.52051  0.49755  Biso   1.000  O
  O5       1.0000 0.06564  0.93334  0.91038  Biso   1.000  O
  O6       1.0000 0.89129  0.93334  0.08473  Biso   1.000  O
  O7       1.0000 0.06564  0.75899  0.08473  Biso   1.000  O
  O8       1.0000 0.06564  0.93334  0.08473  Biso   1.000  O
  O9       1.0000 0.62015  0.18405  0.85444  Biso   1.000  O
  O10      1.0000 0.83535  0.18405  0.63924  Biso   1.000  O
  O11      1.0000 0.31635  0.48785  0.33544  Biso   1.000  O
  O12      1.0000 0.31635  0.70305  0.33544  Biso   1.000  O
  O13      1.0000 0.31635  0.70305  0.63924  Biso   1.000  O
  O14      1.0000 0.31635  0.48785  0.85444  Biso   1.000  O
  O15      1.0000 0.62015  0.18405  0.33544  Biso   1.000  O
  O16      1.0000 0.83535  0.18405  0.33544  Biso   1.000  O
  O17      1.0000 0.83535  0.48785  0.33544  Biso   1.000  O
  O18      1.0000 0.62015  0.70305  0.33544  Biso   1.000  O
  O19      1.0000 0.31635  0.18405  0.63924  Biso   1.000  O
  O20      1.0000 0.31635  0.18405  0.85444  Biso   1.000  O
  O21      1.0000 0.92395  0.09545  0.72784  Biso   1.000  O
  O22      1.0000 0.70875  0.09545  0.94304  Biso   1.000  O
  O23      1.0000 0.22775  0.57645  0.24684  Biso   1.000  O
  O24      1.0000 0.22775  0.79165  0.24684  Biso   1.000  O
  O25      1.0000 0.22775  0.09545  0.94304  Biso   1.000  O
  O26      1.0000 0.22775  0.09545  0.72784  Biso   1.000  O
  O27      1.0000 0.92395  0.57645  0.24684  Biso   1.000  O
  O28      1.0000 0.70875  0.79165  0.24684  Biso   1.000  O
  O29      1.0000 0.70875  0.09545  0.24684  Biso   1.000  O
  O30      1.0000 0.92395  0.09545  0.24684  Biso   1.000  O
  O31      1.0000 0.22775  0.57645  0.94304  Biso   1.000  O
  O32      1.0000 0.22775  0.79165  0.72784  Biso   1.000  O
  O33      1.0000 0.68241  0.16635  0.82758  Biso   1.000  O
  O34      1.0000 0.80849  0.16635  0.70150  Biso   1.000  O
  O35      1.0000 0.29865  0.55011  0.31774  Biso   1.000  O
  O36      1.0000 0.29865  0.67619  0.31774  Biso   1.000  O
  O37      1.0000 0.29865  0.67619  0.70150  Biso   1.000  O
  O38      1.0000 0.29865  0.55011  0.82758  Biso   1.000  O
  O39      1.0000 0.68241  0.16635  0.31774  Biso   1.000  O
  O40      1.0000 0.80849  0.16635  0.31774  Biso   1.000  O
  O41      1.0000 0.80849  0.55011  0.31774  Biso   1.000  O
  O42      1.0000 0.68241  0.67619  0.31774  Biso   1.000  O
  O43      1.0000 0.29865  0.16635  0.70150  Biso   1.000  O
  O44      1.0000 0.29865  0.16635  0.82758  Biso   1.000  O
  O45      1.0000 0.86169  0.11315  0.75470  Biso   1.000  O
  O46      1.0000 0.73561  0.11315  0.88078  Biso   1.000  O
  O47      1.0000 0.24545  0.60331  0.26454  Biso   1.000  O
  O48      1.0000 0.24545  0.72939  0.26454  Biso   1.000  O
  O49      1.0000 0.24545  0.11315  0.88078  Biso   1.000  O
  O50      1.0000 0.24545  0.11315  0.75470  Biso   1.000  O
  O51      1.0000 0.86169  0.60331  0.26454  Biso   1.000  O
  O52      1.0000 0.73561  0.72939  0.26454  Biso   1.000  O
  O53      1.0000 0.73561  0.11315  0.26454  Biso   1.000  O
  O54      1.0000 0.86169  0.11315  0.26454  Biso   1.000  O
  O55      1.0000 0.24545  0.60331  0.88078  Biso   1.000  O
  O56      1.0000 0.24545  0.72939  0.75470  Biso   1.000  O
  O57      1.0000 0.66055  0.25125  0.67964  Biso   1.000  O
  O58      1.0000 0.71815  0.19365  0.73724  Biso   1.000  O
  O59      1.0000 0.38355  0.52825  0.40264  Biso   1.000  O
  O60      1.0000 0.32595  0.58585  0.34504  Biso   1.000  O
  O61      1.0000 0.38355  0.52825  0.67964  Biso   1.000  O
  O62      1.0000 0.32595  0.58585  0.73724  Biso   1.000  O
  O63      1.0000 0.66055  0.25125  0.40264  Biso   1.000  O
  O64      1.0000 0.71815  0.19365  0.34504  Biso   1.000  O
  O65      1.0000 0.66055  0.52825  0.40264  Biso   1.000  O
  O66      1.0000 0.71815  0.58585  0.34504  Biso   1.000  O
  O67      1.0000 0.38355  0.25125  0.67964  Biso   1.000  O
  O68      1.0000 0.32595  0.19365  0.73724  Biso   1.000  O
  O69      1.0000 0.88355  0.02825  0.90264  Biso   1.000  O
  O70      1.0000 0.82595  0.08585  0.84504  Biso   1.000  O
  O71      1.0000 0.16055  0.75125  0.17964  Biso   1.000  O
  O72      1.0000 0.21815  0.69365  0.23724  Biso   1.000  O
  O73      1.0000 0.16055  0.02825  0.90264  Biso   1.000  O
  O74      1.0000 0.21815  0.08585  0.84504  Biso   1.000  O
  O75      1.0000 0.88355  0.75125  0.17964  Biso   1.000  O
  O76      1.0000 0.82595  0.69365  0.23724  Biso   1.000  O
  O77      1.0000 0.88355  0.02825  0.17964  Biso   1.000  O
  O78      1.0000 0.82595  0.08585  0.23724  Biso   1.000  O
  O79      1.0000 0.16055  0.75125  0.90264  Biso   1.000  O
  O80      1.0000 0.21815  0.69365  0.84504  Biso   1.000  O
  O81      1.0000 0.52205  0.38975  0.54114  Biso   1.000  O
  O82      1.0000 0.02205  0.88975  0.04114  Biso   1.000  O
  O83      1.0000 0.57747  0.27365  0.71792  Biso   1.000  O
  O84      1.0000 0.69883  0.27365  0.59656  Biso   1.000  O
  O85      1.0000 0.40595  0.44517  0.42504  Biso   1.000  O
  O86      1.0000 0.40595  0.56653  0.42504  Biso   1.000  O
  O87      1.0000 0.40595  0.56653  0.59656  Biso   1.000  O
  O88      1.0000 0.40595  0.44517  0.71792  Biso   1.000  O
  O89      1.0000 0.57747  0.27365  0.42504  Biso   1.000  O
  O90      1.0000 0.69883  0.27365  0.42504  Biso   1.000  O
  O91      1.0000 0.69883  0.44517  0.42504  Biso   1.000  O
  O92      1.0000 0.57747  0.56653  0.42504  Biso   1.000  O
  O93      1.0000 0.40595  0.27365  0.59656  Biso   1.000  O
  O94      1.0000 0.40595  0.27365  0.71792  Biso   1.000  O
  O95      1.0000 0.96663  0.00585  0.86436  Biso   1.000  O
  O96      1.0000 0.84527  0.00585  0.98572  Biso   1.000  O
  O97      1.0000 0.13815  0.71297  0.15724  Biso   1.000  O
  O98      1.0000 0.13815  0.83433  0.15724  Biso   1.000  O
  O99      1.0000 0.13815  0.00585  0.98572  Biso   1.000  O
  O100     1.0000 0.13815  0.00585  0.86436  Biso   1.000  O
  O101     1.0000 0.96663  0.71297  0.15724  Biso   1.000  O
  O102     1.0000 0.84527  0.83433  0.15724  Biso   1.000  O
  O103     1.0000 0.84527  0.00585  0.15724  Biso   1.000  O
  O104     1.0000 0.96663  0.00585  0.15724  Biso   1.000  O
  O105     1.0000 0.13815  0.71297  0.98572  Biso   1.000  O
