data_image0
_cell_length_a       22.071
_cell_length_b       22.071
_cell_length_c       22.071
_cell_angle_alpha    90
_cell_angle_beta     90
_cell_angle_gamma    90

_symmetry_space_group_name_H-M    "P 1"
_symmetry_int_tables_number       1

loop_
  _symmetry_equiv_pos_as_xyz
  'x, y, z'

loop_
  _atom_site_label
  _atom_site_occupancy
  _atom_site_fract_x
  _atom_site_fract_y
  _atom_site_fract_z
  _atom_site_thermal_displace_type
  _atom_site_B_iso_or_equiv
  _atom_site_type_symbol
  C1       1.0000 0.49826  0.00048  0.33640  Biso   1.000  C
  C2       1.0000 0.44337  0.00434  0.36827  Biso   1.000  C
  C3       1.0000 0.44438  0.00585  0.43214  Biso   1.000  C
  C4       1.0000 0.49963  0.00089  0.46537  Biso   1.000  C
  C5       1.0000 0.55396  0.99572  0.43108  Biso   1.000  C
  C6       1.0000 0.55358  0.99681  0.36741  Biso   1.000  C
  C7       1.0000 0.50071  0.00090  0.53471  Biso   1.000  C
  C8       1.0000 0.55595  0.00593  0.56794  Biso   1.000  C
  C9       1.0000 0.55695  0.00445  0.63182  Biso   1.000  C
  C10      1.0000 0.50207  0.00056  0.66368  Biso   1.000  C
  C11      1.0000 0.44675  0.99682  0.63267  Biso   1.000  C
  C12      1.0000 0.44638  0.99569  0.56900  Biso   1.000  C
  H1       1.0000 0.49805  0.00029  0.28723  Biso   1.000  H
  H2       1.0000 0.40145  0.01133  0.45479  Biso   1.000  H
  H3       1.0000 0.59741  0.99034  0.45270  Biso   1.000  H
  H4       1.0000 0.59887  0.01145  0.54528  Biso   1.000  H
  H5       1.0000 0.50228  0.00040  0.71285  Biso   1.000  H
  H6       1.0000 0.40294  0.99025  0.54739  Biso   1.000  H
  C13      1.0000 0.33499  0.50032  0.00019  Biso   1.000  C
  C14      1.0000 0.36671  0.44528  0.00366  Biso   1.000  C
  C15      1.0000 0.43058  0.44605  0.00493  Biso   1.000  C
  C16      1.0000 0.46409  0.50115  0.00029  Biso   1.000  C
  C17      1.0000 0.42996  0.55574  0.99561  Biso   1.000  C
  C18      1.0000 0.36614  0.55569  0.99678  Biso   1.000  C
  C19      1.0000 0.53356  0.50170  0.00022  Biso   1.000  C
  C20      1.0000 0.56717  0.55676  0.00482  Biso   1.000  C
  C21      1.0000 0.63107  0.55737  0.00350  Biso   1.000  C
  C22      1.0000 0.66263  0.50227  0.99999  Biso   1.000  C
  C23      1.0000 0.63137  0.44705  0.99658  Biso   1.000  C
  C24      1.0000 0.56763  0.44708  0.99548  Biso   1.000  C
  H7       1.0000 0.28580  0.50007  0.00014  Biso   1.000  H
  H8       1.0000 0.45303  0.40298  0.00999  Biso   1.000  H
  H9       1.0000 0.45191  0.59908  0.99059  Biso   1.000  H
  H10      1.0000 0.54480  0.59988  0.00988  Biso   1.000  H
  H11      1.0000 0.71180  0.50223  0.99990  Biso   1.000  H
  H12      1.0000 0.54582  0.40369  0.99046  Biso   1.000  H
  C25      1.0000 0.00029  0.33393  0.50004  Biso   1.000  C
  C26      1.0000 0.00399  0.36539  0.44488  Biso   1.000  C
  C27      1.0000 0.00527  0.42919  0.44523  Biso   1.000  C
  C28      1.0000 0.00022  0.46294  0.50002  Biso   1.000  C
  C29      1.0000 0.99520  0.42920  0.55482  Biso   1.000  C
  C30      1.0000 0.99656  0.36541  0.55519  Biso   1.000  C
  C31      1.0000 0.00018  0.53228  0.50001  Biso   1.000  C
  C32      1.0000 0.00532  0.56607  0.55479  Biso   1.000  C
  C33      1.0000 0.00398  0.62982  0.55505  Biso   1.000  C
  C34      1.0000 0.00009  0.66123  0.50000  Biso   1.000  C
  C35      1.0000 0.99624  0.62981  0.44495  Biso   1.000  C
  C36      1.0000 0.99499  0.56605  0.44523  Biso   1.000  C
  H13      1.0000 0.00032  0.28474  0.50005  Biso   1.000  H
  H14      1.0000 0.01068  0.45144  0.40207  Biso   1.000  H
  H15      1.0000 0.98976  0.45145  0.59797  Biso   1.000  H
  H16      1.0000 0.01084  0.54405  0.59801  Biso   1.000  H
  H17      1.0000 0.00006  0.71037  0.49999  Biso   1.000  H
  H18      1.0000 0.98950  0.54402  0.40200  Biso   1.000  H
  O1       1.0000 0.84350  0.00275  0.91838  Biso   1.000  O
  O2       1.0000 0.15686  0.99763  0.91910  Biso   1.000  O
  O3       1.0000 0.99798  0.08141  0.84334  Biso   1.000  O
  O4       1.0000 0.00258  0.91891  0.84340  Biso   1.000  O
  O5       1.0000 0.00223  0.84399  0.91618  Biso   1.000  O
  O6       1.0000 0.99817  0.15648  0.91598  Biso   1.000  O
  O7       1.0000 0.08421  0.99794  0.84401  Biso   1.000  O
  O8       1.0000 0.91637  0.00242  0.84356  Biso   1.000  O
  Zr1      1.0000 0.00023  0.00023  0.89296  Biso   1.000  Zr
  O9       1.0000 0.05509  0.94532  0.94523  Biso   1.000  O
  O10      1.0000 0.94531  0.05531  0.94498  Biso   1.000  O
  C37      1.0000 0.86005  0.00389  0.86201  Biso   1.000  C
  C38      1.0000 0.14040  0.99630  0.86274  Biso   1.000  C
  C39      1.0000 0.99669  0.13780  0.85974  Biso   1.000  C
  C40      1.0000 0.00372  0.86254  0.85994  Biso   1.000  C
  H19      1.0000 0.08097  0.08084  0.91947  Biso   1.000  H
  O11      1.0000 0.05508  0.05500  0.94533  Biso   1.000  O
  H20      1.0000 0.91944  0.91966  0.91916  Biso   1.000  H
  O12      1.0000 0.94529  0.94548  0.94509  Biso   1.000  O
  O13      1.0000 0.15684  0.00239  0.08164  Biso   1.000  O
  O14      1.0000 0.84347  0.99785  0.08095  Biso   1.000  O
  O15      1.0000 0.08155  0.15705  0.00229  Biso   1.000  O
  O16      1.0000 0.08117  0.84351  0.99771  Biso   1.000  O
  O17      1.0000 0.91854  0.84362  0.00206  Biso   1.000  O
  O18      1.0000 0.91907  0.15705  0.99775  Biso   1.000  O
  O19      1.0000 0.00246  0.08134  0.15674  Biso   1.000  O
  O20      1.0000 0.99763  0.91886  0.15661  Biso   1.000  O
  O21      1.0000 0.00243  0.15644  0.08412  Biso   1.000  O
  O22      1.0000 0.99769  0.84397  0.08380  Biso   1.000  O
  O23      1.0000 0.15654  0.08432  0.00229  Biso   1.000  O
  O24      1.0000 0.84399  0.08441  0.99774  Biso   1.000  O
  O25      1.0000 0.84367  0.91644  0.00174  Biso   1.000  O
  O26      1.0000 0.15632  0.91610  0.99815  Biso   1.000  O
  O27      1.0000 0.08397  0.00219  0.15646  Biso   1.000  O
  O28      1.0000 0.91611  0.99802  0.15604  Biso   1.000  O
  Zr2      1.0000 0.10732  0.00022  0.00027  Biso   1.000  Zr
  Zr3      1.0000 0.89302  0.00036  0.99977  Biso   1.000  Zr
  Zr4      1.0000 0.00029  0.10739  0.00004  Biso   1.000  Zr
  Zr5      1.0000 0.99996  0.89317  0.00000  Biso   1.000  Zr
  Zr6      1.0000 0.00009  0.00018  0.10708  Biso   1.000  Zr
  O29      1.0000 0.94503  0.94536  0.05485  Biso   1.000  O
  O30      1.0000 0.05515  0.05522  0.05511  Biso   1.000  O
  C41      1.0000 0.14029  0.00353  0.13802  Biso   1.000  C
  C42      1.0000 0.85993  0.99648  0.13731  Biso   1.000  C
  C43      1.0000 0.13796  0.14064  0.00355  Biso   1.000  C
  C44      1.0000 0.13759  0.85986  0.99660  Biso   1.000  C
  C45      1.0000 0.86214  0.86012  0.00308  Biso   1.000  C
  C46      1.0000 0.86267  0.14065  0.99646  Biso   1.000  C
  C47      1.0000 0.00385  0.13774  0.14035  Biso   1.000  C
  C48      1.0000 0.99632  0.86249  0.14005  Biso   1.000  C
  H21      1.0000 0.91952  0.08091  0.08059  Biso   1.000  H
  O31      1.0000 0.94537  0.05505  0.05471  Biso   1.000  O
  H22      1.0000 0.08065  0.91947  0.08077  Biso   1.000  H
  O32      1.0000 0.05486  0.94536  0.05487  Biso   1.000  O
  C49      1.0000 0.29074  0.00768  0.26576  Biso   1.000  C
  C50      1.0000 0.23104  0.00070  0.28713  Biso   1.000  C
  C51      1.0000 0.18161  0.99998  0.24638  Biso   1.000  C
  C52      1.0000 0.19109  0.00597  0.18344  Biso   1.000  C
  C53      1.0000 0.25128  0.01354  0.16296  Biso   1.000  C
  C54      1.0000 0.30013  0.01435  0.20344  Biso   1.000  C
  C55      1.0000 0.34322  0.00701  0.30618  Biso   1.000  C
  C56      1.0000 0.38936  0.00612  0.33659  Biso   1.000  C
  H23      1.0000 0.22267  0.99542  0.33519  Biso   1.000  H
  H24      1.0000 0.13622  0.99410  0.26403  Biso   1.000  H
  H25      1.0000 0.26110  0.01869  0.11518  Biso   1.000  H
  H26      1.0000 0.34563  0.01982  0.18581  Biso   1.000  H
  C57      1.0000 0.70899  0.99205  0.26346  Biso   1.000  C
  C58      1.0000 0.70056  0.98075  0.20172  Biso   1.000  C
  C59      1.0000 0.74973  0.98138  0.16177  Biso   1.000  C
  C60      1.0000 0.80913  0.99342  0.18233  Biso   1.000  C
  C61      1.0000 0.81772  0.00369  0.24478  Biso   1.000  C
  C62      1.0000 0.76796  0.00319  0.28499  Biso   1.000  C
  C63      1.0000 0.65624  0.99332  0.30315  Biso   1.000  C
  C64      1.0000 0.61018  0.99459  0.33340  Biso   1.000  C
  H27      1.0000 0.65558  0.97194  0.18412  Biso   1.000  H
  H28      1.0000 0.74082  0.97265  0.11432  Biso   1.000  H
  H29      1.0000 0.86254  0.01311  0.26235  Biso   1.000  H
  H30      1.0000 0.77543  0.01205  0.33267  Biso   1.000  H
  C65      1.0000 0.70960  0.00807  0.73429  Biso   1.000  C
  C66      1.0000 0.70030  0.01544  0.79655  Biso   1.000  C
  C67      1.0000 0.74915  0.01467  0.83701  Biso   1.000  C
  C68      1.0000 0.80927  0.00644  0.81659  Biso   1.000  C
  C69      1.0000 0.81869  0.99981  0.75370  Biso   1.000  C
  C70      1.0000 0.76924  0.00048  0.71296  Biso   1.000  C
  C71      1.0000 0.65710  0.00729  0.69390  Biso   1.000  C
  C72      1.0000 0.61096  0.00631  0.66349  Biso   1.000  C
  H31      1.0000 0.65484  0.02140  0.81413  Biso   1.000  H
  H32      1.0000 0.73941  0.02035  0.88475  Biso   1.000  H
  H33      1.0000 0.86402  0.99340  0.73609  Biso   1.000  H
  H34      1.0000 0.77755  0.99465  0.66496  Biso   1.000  H
  C73      1.0000 0.29134  0.99192  0.73659  Biso   1.000  C
  C74      1.0000 0.29973  0.98040  0.79830  Biso   1.000  C
  C75      1.0000 0.25055  0.98100  0.83824  Biso   1.000  C
  C76      1.0000 0.19119  0.99322  0.81771  Biso   1.000  C
  C77      1.0000 0.18262  0.00370  0.75528  Biso   1.000  C
  C78      1.0000 0.23239  0.00323  0.71508  Biso   1.000  C
  C79      1.0000 0.34409  0.99325  0.69692  Biso   1.000  C
  C80      1.0000 0.39015  0.99455  0.66667  Biso   1.000  C
  H35      1.0000 0.34469  0.97146  0.81587  Biso   1.000  H
  H36      1.0000 0.25944  0.97211  0.88567  Biso   1.000  H
  H37      1.0000 0.13782  0.01327  0.73774  Biso   1.000  H
  H38      1.0000 0.22494  0.01227  0.66743  Biso   1.000  H
  C81      1.0000 0.26474  0.29208  0.00728  Biso   1.000  C
  C82      1.0000 0.20248  0.30084  0.01525  Biso   1.000  C
  C83      1.0000 0.16239  0.25166  0.01467  Biso   1.000  C
  C84      1.0000 0.18315  0.19170  0.00602  Biso   1.000  C
  C85      1.0000 0.24605  0.18281  0.99881  Biso   1.000  C
  C86      1.0000 0.28643  0.23259  0.99930  Biso   1.000  C
  C87      1.0000 0.30476  0.34493  0.00639  Biso   1.000  C
  C88      1.0000 0.33496  0.39124  0.00540  Biso   1.000  C
  H39      1.0000 0.18460  0.34613  0.02156  Biso   1.000  H
  H40      1.0000 0.11463  0.26105  0.02083  Biso   1.000  H
  H41      1.0000 0.26393  0.13763  0.99205  Biso   1.000  H
  H42      1.0000 0.33444  0.22466  0.99302  Biso   1.000  H
  C89      1.0000 0.26391  0.70843  0.99276  Biso   1.000  C
  C90      1.0000 0.28561  0.76769  0.00209  Biso   1.000  C
  C91      1.0000 0.24538  0.81752  0.00253  Biso   1.000  C
  C92      1.0000 0.18265  0.80884  0.99393  Biso   1.000  C
  C93      1.0000 0.16188  0.74912  0.98383  Biso   1.000  C
  C94      1.0000 0.20185  0.69988  0.98330  Biso   1.000  C
  C95      1.0000 0.30374  0.65557  0.99384  Biso   1.000  C
  C96      1.0000 0.33399  0.60938  0.99494  Biso   1.000  C
  H43      1.0000 0.33350  0.77537  0.00952  Biso   1.000  H
  H44      1.0000 0.26320  0.86254  0.01042  Biso   1.000  H
  H45      1.0000 0.11424  0.73998  0.97652  Biso   1.000  H
  H46      1.0000 0.18402  0.65473  0.97591  Biso   1.000  H
  C97      1.0000 0.73423  0.70967  0.00674  Biso   1.000  C
  C98      1.0000 0.79662  0.70017  0.01271  Biso   1.000  C
  C99      1.0000 0.83716  0.74899  0.01203  Biso   1.000  C
  C100     1.0000 0.81670  0.80929  0.00529  Biso   1.000  C
  C101     1.0000 0.75371  0.81888  0.99995  Biso   1.000  C
  C102     1.0000 0.71290  0.76948  0.00056  Biso   1.000  C
  C103     1.0000 0.69367  0.65726  0.00608  Biso   1.000  C
  C104     1.0000 0.66306  0.61123  0.00520  Biso   1.000  C
  H47      1.0000 0.81424  0.65460  0.01757  Biso   1.000  H
  H48      1.0000 0.88498  0.73907  0.01662  Biso   1.000  H
  H49      1.0000 0.73604  0.86434  0.99472  Biso   1.000  H
  H50      1.0000 0.66480  0.77797  0.99583  Biso   1.000  H
  C105     1.0000 0.73587  0.29159  0.99263  Biso   1.000  C
  C106     1.0000 0.71426  0.23215  0.00084  Biso   1.000  C
  C107     1.0000 0.75470  0.18250  0.00134  Biso   1.000  C
  C108     1.0000 0.81753  0.19157  0.99393  Biso   1.000  C
  C109     1.0000 0.83822  0.25150  0.98502  Biso   1.000  C
  C110     1.0000 0.79805  0.30055  0.98442  Biso   1.000  C
  C111     1.0000 0.69578  0.34422  0.99358  Biso   1.000  C
  C112     1.0000 0.66533  0.39025  0.99462  Biso   1.000  C
  H51      1.0000 0.66628  0.22416  0.00730  Biso   1.000  H
  H52      1.0000 0.73693  0.13731  0.00830  Biso   1.000  H
  H53      1.0000 0.88594  0.26093  0.97868  Biso   1.000  H
  H54      1.0000 0.81580  0.34587  0.97794  Biso   1.000  H
  C113     1.0000 0.00818  0.26385  0.29180  Biso   1.000  C
  C114     1.0000 0.01853  0.20190  0.30015  Biso   1.000  C
  C115     1.0000 0.01787  0.16202  0.25088  Biso   1.000  C
  C116     1.0000 0.00676  0.18276  0.19134  Biso   1.000  C
  C117     1.0000 0.99736  0.24539  0.18282  Biso   1.000  C
  C118     1.0000 0.99790  0.28555  0.23270  Biso   1.000  C
  C119     1.0000 0.00707  0.30351  0.34474  Biso   1.000  C
  C120     1.0000 0.00593  0.33356  0.39104  Biso   1.000  C
  H55      1.0000 0.02665  0.18410  0.34518  Biso   1.000  H
  H56      1.0000 0.02588  0.11445  0.25984  Biso   1.000  H
  H57      1.0000 0.98867  0.26316  0.13793  Biso   1.000  H
  H58      1.0000 0.98977  0.33335  0.22520  Biso   1.000  H
  C121     1.0000 0.99239  0.26391  0.70830  Biso   1.000  C
  C122     1.0000 0.98193  0.20199  0.69996  Biso   1.000  C
  C123     1.0000 0.98257  0.16211  0.74924  Biso   1.000  C
  C124     1.0000 0.99379  0.18283  0.80877  Biso   1.000  C
  C125     1.0000 0.00332  0.24544  0.81727  Biso   1.000  C
  C126     1.0000 0.00279  0.28560  0.76738  Biso   1.000  C
  C127     1.0000 0.99351  0.30356  0.65535  Biso   1.000  C
  C128     1.0000 0.99464  0.33359  0.60904  Biso   1.000  C
  H59      1.0000 0.97371  0.18419  0.65494  Biso   1.000  H
  H60      1.0000 0.97446  0.11456  0.74029  Biso   1.000  H
  H61      1.0000 0.01209  0.26320  0.86214  Biso   1.000  H
  H62      1.0000 0.01101  0.33339  0.77487  Biso   1.000  H
  C129     1.0000 0.00795  0.73483  0.70995  Biso   1.000  C
  C130     1.0000 0.01560  0.79701  0.70046  Biso   1.000  C
  C131     1.0000 0.01483  0.83754  0.74921  Biso   1.000  C
  C132     1.0000 0.00632  0.81718  0.80929  Biso   1.000  C
  C133     1.0000 0.99943  0.75437  0.81886  Biso   1.000  C
  C134     1.0000 0.00011  0.71358  0.76955  Biso   1.000  C
  C135     1.0000 0.00711  0.69437  0.65768  Biso   1.000  C
  C136     1.0000 0.00607  0.66371  0.61183  Biso   1.000  C
  H63      1.0000 0.02177  0.81446  0.65499  Biso   1.000  H
  H64      1.0000 0.02073  0.88525  0.73942  Biso   1.000  H
  H65      1.0000 0.99280  0.73687  0.86421  Biso   1.000  H
  H66      1.0000 0.99406  0.66560  0.77790  Biso   1.000  H
  C137     1.0000 0.99211  0.73479  0.29004  Biso   1.000  C
  C138     1.0000 0.00017  0.71355  0.23046  Biso   1.000  C
  C139     1.0000 0.00081  0.75434  0.18114  Biso   1.000  C
  C140     1.0000 0.99369  0.81712  0.19069  Biso   1.000  C
  C141     1.0000 0.98495  0.83746  0.25074  Biso   1.000  C
  C142     1.0000 0.98421  0.79694  0.29949  Biso   1.000  C
  C143     1.0000 0.99302  0.69434  0.34231  Biso   1.000  C
  C144     1.0000 0.99410  0.66368  0.38817  Biso   1.000  C
  H67      1.0000 0.00642  0.66560  0.22213  Biso   1.000  H
  H68      1.0000 0.00764  0.73686  0.13582  Biso   1.000  H
  H69      1.0000 0.97886  0.88515  0.26051  Biso   1.000  H
  H70      1.0000 0.97787  0.81437  0.34495  Biso   1.000  H
  C145     1.0000 0.49839  0.13592  0.04531  Biso   1.000  C
  C146     1.0000 0.50225  0.10406  0.10020  Biso   1.000  C
  C147     1.0000 0.50376  0.04019  0.09919  Biso   1.000  C
  C148     1.0000 0.49880  0.00695  0.04394  Biso   1.000  C
  C149     1.0000 0.49363  0.04125  0.98961  Biso   1.000  C
  C150     1.0000 0.49472  0.10492  0.98999  Biso   1.000  C
  C151     1.0000 0.49881  0.93761  0.04286  Biso   1.000  C
  C152     1.0000 0.50384  0.90438  0.98762  Biso   1.000  C
  C153     1.0000 0.50236  0.84050  0.98662  Biso   1.000  C
  C154     1.0000 0.49847  0.80864  0.04150  Biso   1.000  C
  C155     1.0000 0.49473  0.83965  0.09682  Biso   1.000  C
  C156     1.0000 0.49360  0.90333  0.09719  Biso   1.000  C
  H71      1.0000 0.49820  0.18510  0.04552  Biso   1.000  H
  H72      1.0000 0.50924  0.01753  0.14212  Biso   1.000  H
  H73      1.0000 0.48825  0.01963  0.94616  Biso   1.000  H
  H74      1.0000 0.50936  0.92705  0.94470  Biso   1.000  H
  H75      1.0000 0.49831  0.75947  0.04129  Biso   1.000  H
  H76      1.0000 0.48816  0.92494  0.14063  Biso   1.000  H
  C157     1.0000 0.99823  0.47214  0.20858  Biso   1.000  C
  C158     1.0000 0.94319  0.46867  0.17686  Biso   1.000  C
  C159     1.0000 0.94396  0.46740  0.11299  Biso   1.000  C
  C160     1.0000 0.99906  0.47203  0.07948  Biso   1.000  C
  C161     1.0000 0.05365  0.47672  0.11361  Biso   1.000  C
  C162     1.0000 0.05360  0.47555  0.17743  Biso   1.000  C
  C163     1.0000 0.99961  0.47211  0.01001  Biso   1.000  C
  C164     1.0000 0.05467  0.46751  0.97640  Biso   1.000  C
  C165     1.0000 0.05528  0.46883  0.91250  Biso   1.000  C
  C166     1.0000 0.00018  0.47233  0.88094  Biso   1.000  C
  C167     1.0000 0.94496  0.47575  0.91220  Biso   1.000  C
  C168     1.0000 0.94499  0.47684  0.97594  Biso   1.000  C
  H77      1.0000 0.99798  0.47219  0.25777  Biso   1.000  H
  H78      1.0000 0.90089  0.46234  0.09054  Biso   1.000  H
  H79      1.0000 0.09699  0.48173  0.09166  Biso   1.000  H
  H80      1.0000 0.09779  0.46245  0.99877  Biso   1.000  H
  H81      1.0000 0.00014  0.47243  0.83177  Biso   1.000  H
  H82      1.0000 0.90160  0.48187  0.99775  Biso   1.000  H
  C169     1.0000 0.83184  0.97229  0.54328  Biso   1.000  C
  C170     1.0000 0.86330  0.02745  0.53958  Biso   1.000  C
  C171     1.0000 0.92710  0.02710  0.53830  Biso   1.000  C
  C172     1.0000 0.96085  0.97231  0.54335  Biso   1.000  C
  C173     1.0000 0.92711  0.91750  0.54837  Biso   1.000  C
  C174     1.0000 0.86332  0.91713  0.54701  Biso   1.000  C
  C175     1.0000 0.03019  0.97232  0.54339  Biso   1.000  C
  C176     1.0000 0.06398  0.91754  0.53825  Biso   1.000  C
  C177     1.0000 0.12773  0.91728  0.53959  Biso   1.000  C
  C178     1.0000 0.15914  0.97233  0.54348  Biso   1.000  C
  C179     1.0000 0.12772  0.02738  0.54733  Biso   1.000  C
  C180     1.0000 0.06396  0.02710  0.54858  Biso   1.000  C
  H83      1.0000 0.78265  0.97228  0.54325  Biso   1.000  H
  H84      1.0000 0.94935  0.07026  0.53289  Biso   1.000  H
  H85      1.0000 0.94936  0.87435  0.55381  Biso   1.000  H
  H86      1.0000 0.04196  0.87432  0.53273  Biso   1.000  H
  H87      1.0000 0.20828  0.97234  0.54351  Biso   1.000  H
  H88      1.0000 0.04193  0.07033  0.55407  Biso   1.000  H
  O33      1.0000 0.50066  0.55394  0.70007  Biso   1.000  O
  O34      1.0000 0.49554  0.55323  0.38671  Biso   1.000  O
  O35      1.0000 0.57932  0.62898  0.54559  Biso   1.000  O
  O36      1.0000 0.41682  0.62893  0.54099  Biso   1.000  O
  O37      1.0000 0.34190  0.55615  0.54134  Biso   1.000  O
  O38      1.0000 0.65439  0.55634  0.54540  Biso   1.000  O
  O39      1.0000 0.49585  0.62832  0.45936  Biso   1.000  O
  O40      1.0000 0.50033  0.62876  0.62720  Biso   1.000  O
  Zr7      1.0000 0.49814  0.57936  0.54334  Biso   1.000  Zr
  O41      1.0000 0.44323  0.52710  0.48848  Biso   1.000  O
  O42      1.0000 0.55322  0.52734  0.59826  Biso   1.000  O
  C181     1.0000 0.50180  0.61031  0.68352  Biso   1.000  C
  C182     1.0000 0.49421  0.60959  0.40317  Biso   1.000  C
  C183     1.0000 0.63571  0.61259  0.54688  Biso   1.000  C
  C184     1.0000 0.36045  0.61239  0.53985  Biso   1.000  C
  H89      1.0000 0.57875  0.55286  0.46260  Biso   1.000  H
  O43      1.0000 0.55291  0.52699  0.48849  Biso   1.000  O
  H90      1.0000 0.41757  0.55317  0.62413  Biso   1.000  H
  O44      1.0000 0.44339  0.52723  0.59828  Biso   1.000  O
  O45      1.0000 0.50030  0.39069  0.38673  Biso   1.000  O
  O46      1.0000 0.49576  0.39138  0.70010  Biso   1.000  O
  O47      1.0000 0.65496  0.47004  0.46202  Biso   1.000  O
  O48      1.0000 0.34142  0.47462  0.46240  Biso   1.000  O
  O49      1.0000 0.34153  0.47027  0.62503  Biso   1.000  O
  O50      1.0000 0.65496  0.47457  0.62450  Biso   1.000  O
  O51      1.0000 0.57925  0.31559  0.54111  Biso   1.000  O
  O52      1.0000 0.41677  0.31572  0.54594  Biso   1.000  O
  O53      1.0000 0.65435  0.38821  0.54114  Biso   1.000  O
  O54      1.0000 0.34188  0.38853  0.54588  Biso   1.000  O
  O55      1.0000 0.58223  0.47004  0.38703  Biso   1.000  O
  O56      1.0000 0.58232  0.47458  0.69958  Biso   1.000  O
  O57      1.0000 0.41435  0.47059  0.69990  Biso   1.000  O
  O58      1.0000 0.41401  0.47417  0.38725  Biso   1.000  O
  O59      1.0000 0.50010  0.31587  0.45960  Biso   1.000  O
  O60      1.0000 0.49593  0.31629  0.62746  Biso   1.000  O
  Zr8      1.0000 0.49813  0.47206  0.43625  Biso   1.000  Zr
  Zr9      1.0000 0.49827  0.47255  0.65055  Biso   1.000  Zr
  Zr10     1.0000 0.60530  0.47229  0.54328  Biso   1.000  Zr
  Zr11     1.0000 0.39108  0.47233  0.54361  Biso   1.000  Zr
  Zr12     1.0000 0.49809  0.36525  0.54348  Biso   1.000  Zr
  O61      1.0000 0.44327  0.41748  0.59854  Biso   1.000  O
  O62      1.0000 0.55313  0.41722  0.48842  Biso   1.000  O
  C185     1.0000 0.50144  0.33431  0.40328  Biso   1.000  C
  C186     1.0000 0.49439  0.33502  0.68364  Biso   1.000  C
  C187     1.0000 0.63855  0.46878  0.40561  Biso   1.000  C
  C188     1.0000 0.35777  0.47573  0.40598  Biso   1.000  C
  C189     1.0000 0.35803  0.46925  0.68143  Biso   1.000  C
  C190     1.0000 0.63856  0.47586  0.68090  Biso   1.000  C
  C191     1.0000 0.63565  0.33198  0.53972  Biso   1.000  C
  C192     1.0000 0.36040  0.33228  0.54725  Biso   1.000  C
  H91      1.0000 0.57882  0.39173  0.62405  Biso   1.000  H
  O63      1.0000 0.55296  0.41761  0.59820  Biso   1.000  O
  H92      1.0000 0.41738  0.39156  0.46292  Biso   1.000  H
  O64      1.0000 0.44327  0.41746  0.48871  Biso   1.000  O
  C193     1.0000 0.50559  0.20657  0.25283  Biso   1.000  C
  C194     1.0000 0.49861  0.18520  0.31253  Biso   1.000  C
  C195     1.0000 0.49789  0.22595  0.36196  Biso   1.000  C
  C196     1.0000 0.50388  0.28889  0.35248  Biso   1.000  C
  C197     1.0000 0.51145  0.30937  0.29229  Biso   1.000  C
  C198     1.0000 0.51226  0.26889  0.24344  Biso   1.000  C
  C199     1.0000 0.50492  0.16615  0.20035  Biso   1.000  C
  C200     1.0000 0.50403  0.13573  0.15421  Biso   1.000  C
  H93      1.0000 0.49333  0.13714  0.32090  Biso   1.000  H
  H94      1.0000 0.49201  0.20830  0.40735  Biso   1.000  H
  H95      1.0000 0.51660  0.35715  0.28247  Biso   1.000  H
  H96      1.0000 0.51773  0.28652  0.19794  Biso   1.000  H
  C201     1.0000 0.48996  0.20887  0.83458  Biso   1.000  C
  C202     1.0000 0.47866  0.27061  0.84301  Biso   1.000  C
  C203     1.0000 0.47929  0.31056  0.79384  Biso   1.000  C
  C204     1.0000 0.49133  0.29000  0.73444  Biso   1.000  C
  C205     1.0000 0.50160  0.22754  0.72585  Biso   1.000  C
  C206     1.0000 0.50110  0.18733  0.77561  Biso   1.000  C
  C207     1.0000 0.49123  0.16918  0.88733  Biso   1.000  C
  C208     1.0000 0.49250  0.13893  0.93339  Biso   1.000  C
  H97      1.0000 0.46985  0.28821  0.88799  Biso   1.000  H
  H98      1.0000 0.47056  0.35801  0.80275  Biso   1.000  H
  H99      1.0000 0.51102  0.20997  0.68103  Biso   1.000  H
  H100     1.0000 0.50996  0.13965  0.76814  Biso   1.000  H
  C209     1.0000 0.50598  0.73803  0.83397  Biso   1.000  C
  C210     1.0000 0.51335  0.67577  0.84327  Biso   1.000  C
  C211     1.0000 0.51258  0.63531  0.79442  Biso   1.000  C
  C212     1.0000 0.50435  0.65573  0.73430  Biso   1.000  C
  C213     1.0000 0.49772  0.71862  0.72488  Biso   1.000  C
  C214     1.0000 0.49839  0.75936  0.77433  Biso   1.000  C
  C215     1.0000 0.50520  0.77842  0.88647  Biso   1.000  C
  C216     1.0000 0.50422  0.80883  0.93261  Biso   1.000  C
  H101     1.0000 0.51931  0.65819  0.88873  Biso   1.000  H
  H102     1.0000 0.51826  0.58757  0.80416  Biso   1.000  H
  H103     1.0000 0.49131  0.73624  0.67955  Biso   1.000  H
  H104     1.0000 0.49256  0.80737  0.76602  Biso   1.000  H
  C217     1.0000 0.48983  0.73574  0.25223  Biso   1.000  C
  C218     1.0000 0.47831  0.67403  0.24384  Biso   1.000  C
  C219     1.0000 0.47891  0.63409  0.29302  Biso   1.000  C
  C220     1.0000 0.49113  0.65461  0.35238  Biso   1.000  C
  C221     1.0000 0.50161  0.71705  0.36095  Biso   1.000  C
  C222     1.0000 0.50114  0.75725  0.31118  Biso   1.000  C
  C223     1.0000 0.49116  0.77541  0.19948  Biso   1.000  C
  C224     1.0000 0.49246  0.80565  0.15342  Biso   1.000  C
  H105     1.0000 0.46937  0.65646  0.19888  Biso   1.000  H
  H106     1.0000 0.47002  0.58666  0.28413  Biso   1.000  H
  H107     1.0000 0.51118  0.73458  0.40575  Biso   1.000  H
  H108     1.0000 0.51018  0.80489  0.31863  Biso   1.000  H
  C225     1.0000 0.78999  0.46505  0.27883  Biso   1.000  C
  C226     1.0000 0.79875  0.45708  0.34109  Biso   1.000  C
  C227     1.0000 0.74957  0.45766  0.38118  Biso   1.000  C
  C228     1.0000 0.68961  0.46631  0.36042  Biso   1.000  C
  C229     1.0000 0.68072  0.47352  0.29752  Biso   1.000  C
  C230     1.0000 0.73050  0.47302  0.25714  Biso   1.000  C
  C231     1.0000 0.84284  0.46594  0.23881  Biso   1.000  C
  C232     1.0000 0.88915  0.46693  0.20861  Biso   1.000  C
  H109     1.0000 0.84404  0.45077  0.35897  Biso   1.000  H
  H110     1.0000 0.75896  0.45150  0.42894  Biso   1.000  H
  H111     1.0000 0.63554  0.48027  0.27964  Biso   1.000  H
  H112     1.0000 0.72257  0.47931  0.20913  Biso   1.000  H
  C233     1.0000 0.20634  0.47957  0.27966  Biso   1.000  C
  C234     1.0000 0.26560  0.47024  0.25796  Biso   1.000  C
  C235     1.0000 0.31543  0.46980  0.29819  Biso   1.000  C
  C236     1.0000 0.30675  0.47839  0.36092  Biso   1.000  C
  C237     1.0000 0.24703  0.48850  0.38169  Biso   1.000  C
  C238     1.0000 0.19779  0.48903  0.34172  Biso   1.000  C
  C239     1.0000 0.15348  0.47849  0.23983  Biso   1.000  C
  C240     1.0000 0.10729  0.47739  0.20958  Biso   1.000  C
  H113     1.0000 0.27328  0.46281  0.21007  Biso   1.000  H
  H114     1.0000 0.36045  0.46191  0.28037  Biso   1.000  H
  H115     1.0000 0.23789  0.49581  0.42933  Biso   1.000  H
  H116     1.0000 0.15264  0.49642  0.35955  Biso   1.000  H
  C241     1.0000 0.20758  0.46559  0.80934  Biso   1.000  C
  C242     1.0000 0.19808  0.45962  0.74695  Biso   1.000  C
  C243     1.0000 0.24690  0.46030  0.70641  Biso   1.000  C
  C244     1.0000 0.30720  0.46704  0.72687  Biso   1.000  C
  C245     1.0000 0.31679  0.47238  0.78986  Biso   1.000  C
  C246     1.0000 0.26739  0.47177  0.83067  Biso   1.000  C
  C247     1.0000 0.15517  0.46625  0.84990  Biso   1.000  C
  C248     1.0000 0.10914  0.46713  0.88051  Biso   1.000  C
  H117     1.0000 0.15251  0.45476  0.72933  Biso   1.000  H
  H118     1.0000 0.23698  0.45571  0.65859  Biso   1.000  H
  H119     1.0000 0.36225  0.47760  0.80753  Biso   1.000  H
  H120     1.0000 0.27588  0.47650  0.87877  Biso   1.000  H
  C249     1.0000 0.78950  0.47969  0.80770  Biso   1.000  C
  C250     1.0000 0.73006  0.47149  0.82931  Biso   1.000  C
  C251     1.0000 0.68041  0.47099  0.78887  Biso   1.000  C
  C252     1.0000 0.68948  0.47839  0.72604  Biso   1.000  C
  C253     1.0000 0.74941  0.48731  0.70535  Biso   1.000  C
  C254     1.0000 0.79846  0.48791  0.74552  Biso   1.000  C
  C255     1.0000 0.84213  0.47874  0.84779  Biso   1.000  C
  C256     1.0000 0.88816  0.47771  0.87824  Biso   1.000  C
  H121     1.0000 0.72207  0.46503  0.87729  Biso   1.000  H
  H122     1.0000 0.63522  0.46402  0.80664  Biso   1.000  H
  H123     1.0000 0.75884  0.49364  0.65763  Biso   1.000  H
  H124     1.0000 0.84378  0.49438  0.72777  Biso   1.000  H
  C257     1.0000 0.76176  0.18053  0.53539  Biso   1.000  C
  C258     1.0000 0.69981  0.17218  0.52504  Biso   1.000  C
  C259     1.0000 0.65993  0.22145  0.52570  Biso   1.000  C
  C260     1.0000 0.68067  0.28099  0.53681  Biso   1.000  C
  C261     1.0000 0.74330  0.28950  0.54621  Biso   1.000  C
  C262     1.0000 0.78346  0.23963  0.54567  Biso   1.000  C
  C263     1.0000 0.80142  0.12759  0.53650  Biso   1.000  C
  C264     1.0000 0.83147  0.08129  0.53764  Biso   1.000  C
  H125     1.0000 0.68201  0.12715  0.51692  Biso   1.000  H
  H126     1.0000 0.61236  0.21249  0.51769  Biso   1.000  H
  H127     1.0000 0.76107  0.33440  0.55490  Biso   1.000  H
  H128     1.0000 0.83126  0.24712  0.55380  Biso   1.000  H
  C265     1.0000 0.76182  0.76402  0.55118  Biso   1.000  C
  C266     1.0000 0.69990  0.77236  0.56164  Biso   1.000  C
  C267     1.0000 0.66002  0.72309  0.56100  Biso   1.000  C
  C268     1.0000 0.68074  0.66355  0.54978  Biso   1.000  C
  C269     1.0000 0.74335  0.65505  0.54025  Biso   1.000  C
  C270     1.0000 0.78351  0.70495  0.54078  Biso   1.000  C
  C271     1.0000 0.80147  0.81697  0.55006  Biso   1.000  C
  C272     1.0000 0.83150  0.86329  0.54893  Biso   1.000  C
  H129     1.0000 0.68210  0.81738  0.56986  Biso   1.000  H
  H130     1.0000 0.61247  0.73203  0.56911  Biso   1.000  H
  H131     1.0000 0.76111  0.61019  0.53148  Biso   1.000  H
  H132     1.0000 0.83130  0.69746  0.53256  Biso   1.000  H
  C273     1.0000 0.23274  0.76238  0.53562  Biso   1.000  C
  C274     1.0000 0.29492  0.77187  0.52797  Biso   1.000  C
  C275     1.0000 0.33545  0.72312  0.52874  Biso   1.000  C
  C276     1.0000 0.31509  0.66304  0.53725  Biso   1.000  C
  C277     1.0000 0.25228  0.65347  0.54414  Biso   1.000  C
  C278     1.0000 0.21149  0.70278  0.54346  Biso   1.000  C
  C279     1.0000 0.19228  0.81465  0.53646  Biso   1.000  C
  C280     1.0000 0.16162  0.86050  0.53750  Biso   1.000  C
  H133     1.0000 0.31237  0.81734  0.52180  Biso   1.000  H
  H134     1.0000 0.38316  0.73291  0.52284  Biso   1.000  H
  H135     1.0000 0.23478  0.60812  0.55077  Biso   1.000  H
  H136     1.0000 0.16351  0.69442  0.54951  Biso   1.000  H
  C281     1.0000 0.23270  0.18229  0.55146  Biso   1.000  C
  C282     1.0000 0.21146  0.24187  0.54340  Biso   1.000  C
  C283     1.0000 0.25225  0.29119  0.54276  Biso   1.000  C
  C284     1.0000 0.31503  0.28164  0.54988  Biso   1.000  C
  C285     1.0000 0.33537  0.22159  0.55862  Biso   1.000  C
  C286     1.0000 0.29485  0.17284  0.55936  Biso   1.000  C
  C287     1.0000 0.19225  0.13002  0.55055  Biso   1.000  C
  C288     1.0000 0.16159  0.08415  0.54947  Biso   1.000  C
  H137     1.0000 0.16351  0.25020  0.53715  Biso   1.000  H
  H138     1.0000 0.23477  0.33651  0.53593  Biso   1.000  H
  H139     1.0000 0.38306  0.21182  0.56471  Biso   1.000  H
