data_image0
_cell_length_a       21.983
_cell_length_b       21.983
_cell_length_c       21.983
_cell_angle_alpha    90
_cell_angle_beta     90
_cell_angle_gamma    90

_symmetry_space_group_name_H-M    "P 1"
_symmetry_int_tables_number       1

loop_
  _symmetry_equiv_pos_as_xyz
  'x, y, z'

loop_
  _atom_site_label
  _atom_site_occupancy
  _atom_site_fract_x
  _atom_site_fract_y
  _atom_site_fract_z
  _atom_site_thermal_displace_type
  _atom_site_B_iso_or_equiv
  _atom_site_type_symbol
  C1       1.0000 0.55777  0.00058  0.62807  Biso   1.000  C
  C2       1.0000 0.50199  0.00010  0.65941  Biso   1.000  C
  C3       1.0000 0.44609  0.99969  0.62843  Biso   1.000  C
  C4       1.0000 0.44554  0.00002  0.56392  Biso   1.000  C
  C5       1.0000 0.50138  0.00024  0.53124  Biso   1.000  C
  C6       1.0000 0.55764  0.00040  0.56337  Biso   1.000  C
  C7       1.0000 0.61217  0.00036  0.52984  Biso   1.000  C
  C8       1.0000 0.61174  0.00008  0.46640  Biso   1.000  C
  C9       1.0000 0.55675  0.00006  0.43351  Biso   1.000  C
  C10      1.0000 0.50090  0.00029  0.46622  Biso   1.000  C
  C11      1.0000 0.39055  0.00012  0.53120  Biso   1.000  C
  C12      1.0000 0.39007  0.00048  0.46777  Biso   1.000  C
  C13      1.0000 0.44459  0.00053  0.43417  Biso   1.000  C
  C14      1.0000 0.44432  0.00080  0.36949  Biso   1.000  C
  C15      1.0000 0.50004  0.00031  0.33802  Biso   1.000  C
  C16      1.0000 0.55610  0.99981  0.36888  Biso   1.000  C
  H1       1.0000 0.65590  0.00043  0.55251  Biso   1.000  H
  H2       1.0000 0.65520  0.99998  0.44323  Biso   1.000  H
  H3       1.0000 0.34715  0.00001  0.55446  Biso   1.000  H
  H4       1.0000 0.34631  0.00061  0.44517  Biso   1.000  H
  H5       1.0000 0.50197  0.00002  0.70879  Biso   1.000  H
  H6       1.0000 0.49977  0.00031  0.28860  Biso   1.000  H
  C17      1.0000 0.44224  0.37200  0.00067  Biso   1.000  C
  C18      1.0000 0.49796  0.34065  0.00014  Biso   1.000  C
  C19      1.0000 0.55383  0.37161  0.99970  Biso   1.000  C
  C20      1.0000 0.55443  0.43610  0.00004  Biso   1.000  C
  C21      1.0000 0.49862  0.46879  0.00031  Biso   1.000  C
  C22      1.0000 0.44235  0.43668  0.00050  Biso   1.000  C
  C23      1.0000 0.38781  0.47020  0.00051  Biso   1.000  C
  C24      1.0000 0.38826  0.53363  0.00025  Biso   1.000  C
  C25      1.0000 0.44327  0.56649  0.00019  Biso   1.000  C
  C26      1.0000 0.49910  0.53377  0.00036  Biso   1.000  C
  C27      1.0000 0.60944  0.46879  0.00010  Biso   1.000  C
  C28      1.0000 0.60994  0.53220  0.00047  Biso   1.000  C
  C29      1.0000 0.55542  0.56580  0.00057  Biso   1.000  C
  C30      1.0000 0.55566  0.63045  0.00085  Biso   1.000  C
  C31      1.0000 0.50000  0.66194  0.00042  Biso   1.000  C
  C32      1.0000 0.44397  0.63110  0.99996  Biso   1.000  C
  H7       1.0000 0.34409  0.44753  0.00061  Biso   1.000  H
  H8       1.0000 0.34481  0.55683  0.00018  Biso   1.000  H
  H9       1.0000 0.65283  0.44550  0.99995  Biso   1.000  H
  H10      1.0000 0.65370  0.55481  0.00057  Biso   1.000  H
  H11      1.0000 0.49798  0.29126  0.00005  Biso   1.000  H
  H12      1.0000 0.50028  0.71136  0.00042  Biso   1.000  H
  C33      1.0000 0.00048  0.36959  0.44442  Biso   1.000  C
  C34      1.0000 0.00001  0.33807  0.50004  Biso   1.000  C
  C35      1.0000 0.99966  0.36893  0.55605  Biso   1.000  C
  C36      1.0000 0.00003  0.43351  0.55676  Biso   1.000  C
  C37      1.0000 0.00025  0.46621  0.50095  Biso   1.000  C
  C38      1.0000 0.00036  0.43421  0.44465  Biso   1.000  C
  C39      1.0000 0.00033  0.46778  0.39012  Biso   1.000  C
  C40      1.0000 0.00012  0.53116  0.39062  Biso   1.000  C
  C41      1.0000 0.00014  0.56381  0.44564  Biso   1.000  C
  C42      1.0000 0.00034  0.53115  0.50144  Biso   1.000  C
  C43      1.0000 0.00017  0.46633  0.61179  Biso   1.000  C
  C44      1.0000 0.00055  0.52973  0.61224  Biso   1.000  C
  C45      1.0000 0.00061  0.56323  0.55769  Biso   1.000  C
  C46      1.0000 0.00090  0.62786  0.55779  Biso   1.000  C
  C47      1.0000 0.00045  0.65925  0.50210  Biso   1.000  C
  C48      1.0000 0.99996  0.62826  0.44626  Biso   1.000  C
  H13      1.0000 0.00036  0.44519  0.34635  Biso   1.000  H
  H14      1.0000 0.00002  0.55444  0.34722  Biso   1.000  H
  H15      1.0000 0.00007  0.44314  0.65524  Biso   1.000  H
  H16      1.0000 0.00070  0.55239  0.65598  Biso   1.000  H
  H17      1.0000 0.99991  0.28865  0.49975  Biso   1.000  H
  H18      1.0000 0.00046  0.70864  0.50209  Biso   1.000  H
  O1       1.0000 0.84386  0.00176  0.91858  Biso   1.000  O
  O2       1.0000 0.15624  0.99799  0.91919  Biso   1.000  O
  O3       1.0000 0.99762  0.08141  0.84290  Biso   1.000  O
  O4       1.0000 0.00255  0.91781  0.84308  Biso   1.000  O
  O5       1.0000 0.00211  0.84200  0.91582  Biso   1.000  O
  O6       1.0000 0.99789  0.15755  0.91533  Biso   1.000  O
  O7       1.0000 0.08411  0.99806  0.84333  Biso   1.000  O
  O8       1.0000 0.91623  0.00131  0.84298  Biso   1.000  O
  Zr1      1.0000 0.00010  0.99974  0.89258  Biso   1.000  Zr
  O9       1.0000 0.05476  0.94418  0.94500  Biso   1.000  O
  O10      1.0000 0.94540  0.05563  0.94466  Biso   1.000  O
  C49      1.0000 0.85993  0.00253  0.86186  Biso   1.000  C
  C50      1.0000 0.14031  0.99692  0.86246  Biso   1.000  C
  C51      1.0000 0.99658  0.13817  0.85909  Biso   1.000  C
  C52      1.0000 0.00340  0.86108  0.85949  Biso   1.000  C
  H19      1.0000 0.08062  0.08113  0.91908  Biso   1.000  H
  O11      1.0000 0.05427  0.05557  0.94505  Biso   1.000  O
  H20      1.0000 0.91943  0.91855  0.91909  Biso   1.000  H
  O12      1.0000 0.94576  0.94418  0.94503  Biso   1.000  O
  O13      1.0000 0.15620  0.00252  0.08131  Biso   1.000  O
  O14      1.0000 0.84373  0.99766  0.08083  Biso   1.000  O
  O15      1.0000 0.08401  0.15805  0.00163  Biso   1.000  O
  O16      1.0000 0.08454  0.84238  0.99851  Biso   1.000  O
  O17      1.0000 0.91576  0.84204  0.00197  Biso   1.000  O
  O18      1.0000 0.91554  0.15766  0.99804  Biso   1.000  O
  O19      1.0000 0.00205  0.08195  0.15711  Biso   1.000  O
  O20      1.0000 0.99759  0.91847  0.15718  Biso   1.000  O
  O21      1.0000 0.00159  0.15788  0.08449  Biso   1.000  O
  O22      1.0000 0.99820  0.84238  0.08471  Biso   1.000  O
  O23      1.0000 0.15597  0.08178  0.00227  Biso   1.000  O
  O24      1.0000 0.84387  0.08111  0.99741  Biso   1.000  O
  O25      1.0000 0.84393  0.91843  0.00217  Biso   1.000  O
  O26      1.0000 0.15616  0.91900  0.99805  Biso   1.000  O
  O27      1.0000 0.08395  0.00198  0.15703  Biso   1.000  O
  O28      1.0000 0.91582  0.99835  0.15674  Biso   1.000  O
  Zr2      1.0000 0.10555  0.00025  0.00020  Biso   1.000  Zr
  Zr3      1.0000 0.89443  0.99981  0.99983  Biso   1.000  Zr
  Zr4      1.0000 0.99986  0.10924  0.99995  Biso   1.000  Zr
  Zr5      1.0000 0.00010  0.89074  0.00018  Biso   1.000  Zr
  Zr6      1.0000 0.99992  0.00017  0.10752  Biso   1.000  Zr
  O29      1.0000 0.94540  0.94421  0.05527  Biso   1.000  O
  O30      1.0000 0.05453  0.05605  0.05535  Biso   1.000  O
  C53      1.0000 0.14024  0.00335  0.13804  Biso   1.000  C
  C54      1.0000 0.85962  0.99688  0.13757  Biso   1.000  C
  C55      1.0000 0.14015  0.13866  0.00293  Biso   1.000  C
  C56      1.0000 0.14058  0.86209  0.99723  Biso   1.000  C
  C57      1.0000 0.85963  0.86155  0.00314  Biso   1.000  C
  C58      1.0000 0.85951  0.13800  0.99662  Biso   1.000  C
  C59      1.0000 0.00289  0.13869  0.14082  Biso   1.000  C
  C60      1.0000 0.99677  0.86172  0.14093  Biso   1.000  C
  H21      1.0000 0.91910  0.08109  0.08077  Biso   1.000  H
  O31      1.0000 0.94553  0.05554  0.05487  Biso   1.000  O
  H22      1.0000 0.08073  0.91912  0.08116  Biso   1.000  H
  O32      1.0000 0.05433  0.94460  0.05514  Biso   1.000  O
  C61      1.0000 0.29230  0.00429  0.26465  Biso   1.000  C
  C62      1.0000 0.23269  0.99587  0.28642  Biso   1.000  C
  C63      1.0000 0.18270  0.99639  0.24603  Biso   1.000  C
  C64      1.0000 0.19158  0.00512  0.18310  Biso   1.000  C
  C65      1.0000 0.25167  0.01427  0.16222  Biso   1.000  C
  C66      1.0000 0.30111  0.01383  0.20236  Biso   1.000  C
  C67      1.0000 0.34512  0.00275  0.30487  Biso   1.000  C
  C68      1.0000 0.39102  0.00173  0.33592  Biso   1.000  C
  H23      1.0000 0.22484  0.98849  0.33449  Biso   1.000  H
  H24      1.0000 0.13738  0.98917  0.26392  Biso   1.000  H
  H25      1.0000 0.26092  0.02160  0.11440  Biso   1.000  H
  H26      1.0000 0.34656  0.02061  0.18452  Biso   1.000  H
  C69      1.0000 0.70752  0.99602  0.26364  Biso   1.000  C
  C70      1.0000 0.69885  0.98570  0.20149  Biso   1.000  C
  C71      1.0000 0.74834  0.98518  0.16150  Biso   1.000  C
  C72      1.0000 0.80828  0.99505  0.18246  Biso   1.000  C
  C73      1.0000 0.81701  0.00450  0.24528  Biso   1.000  C
  C74      1.0000 0.76697  0.00509  0.28551  Biso   1.000  C
  C75      1.0000 0.65474  0.99770  0.30369  Biso   1.000  C
  C76      1.0000 0.60899  0.99882  0.33483  Biso   1.000  C
  H27      1.0000 0.65348  0.97839  0.18365  Biso   1.000  H
  H28      1.0000 0.73927  0.97726  0.11373  Biso   1.000  H
  H29      1.0000 0.86224  0.01228  0.26317  Biso   1.000  H
  H30      1.0000 0.77464  0.01307  0.33352  Biso   1.000  H
  C77      1.0000 0.70889  0.00350  0.73408  Biso   1.000  C
  C78      1.0000 0.76882  0.99678  0.71265  Biso   1.000  C
  C79      1.0000 0.81841  0.99715  0.75348  Biso   1.000  C
  C80      1.0000 0.80883  0.00406  0.81655  Biso   1.000  C
  C81      1.0000 0.74839  0.01139  0.83714  Biso   1.000  C
  C82      1.0000 0.69934  0.01109  0.79653  Biso   1.000  C
  C83      1.0000 0.65653  0.00224  0.69330  Biso   1.000  C
  C84      1.0000 0.61092  0.00137  0.66185  Biso   1.000  C
  H31      1.0000 0.77724  0.99091  0.66446  Biso   1.000  H
  H32      1.0000 0.86401  0.99138  0.73580  Biso   1.000  H
  H33      1.0000 0.73861  0.01722  0.88506  Biso   1.000  H
  H34      1.0000 0.65360  0.01651  0.81411  Biso   1.000  H
  C85      1.0000 0.29196  0.99598  0.73596  Biso   1.000  C
  C86      1.0000 0.23237  0.00430  0.71419  Biso   1.000  C
  C87      1.0000 0.18250  0.00377  0.75460  Biso   1.000  C
  C88      1.0000 0.19155  0.99513  0.81750  Biso   1.000  C
  C89      1.0000 0.25163  0.98605  0.83838  Biso   1.000  C
  C90      1.0000 0.30096  0.98651  0.79821  Biso   1.000  C
  C91      1.0000 0.34454  0.99757  0.69570  Biso   1.000  C
  C92      1.0000 0.39015  0.99866  0.66442  Biso   1.000  C
  H35      1.0000 0.22447  0.01162  0.66612  Biso   1.000  H
  H36      1.0000 0.13715  0.01092  0.73677  Biso   1.000  H
  H37      1.0000 0.26092  0.97880  0.88621  Biso   1.000  H
  H38      1.0000 0.34646  0.97980  0.81596  Biso   1.000  H
  C93      1.0000 0.29134  0.26599  0.00375  Biso   1.000  C
  C94      1.0000 0.23155  0.28746  0.99630  Biso   1.000  C
  C95      1.0000 0.18194  0.24672  0.99672  Biso   1.000  C
  C96      1.0000 0.19138  0.18373  0.00442  Biso   1.000  C
  C97      1.0000 0.25168  0.16308  0.01246  Biso   1.000  C
  C98      1.0000 0.30079  0.20361  0.01211  Biso   1.000  C
  C99      1.0000 0.34365  0.30672  0.00242  Biso   1.000  C
  C100     1.0000 0.38917  0.33821  0.00150  Biso   1.000  C
  H39      1.0000 0.22325  0.33559  0.98981  Biso   1.000  H
  H40      1.0000 0.13643  0.26442  0.99034  Biso   1.000  H
  H41      1.0000 0.26130  0.11520  0.01889  Biso   1.000  H
  H42      1.0000 0.34646  0.18605  0.01808  Biso   1.000  H
  C101     1.0000 0.29284  0.73645  0.99642  Biso   1.000  C
  C102     1.0000 0.30153  0.79868  0.98655  Biso   1.000  C
  C103     1.0000 0.25200  0.83862  0.98608  Biso   1.000  C
  C104     1.0000 0.19208  0.81747  0.99553  Biso   1.000  C
  C105     1.0000 0.18338  0.75459  0.00461  Biso   1.000  C
  C106     1.0000 0.23342  0.71444  0.00516  Biso   1.000  C
  C107     1.0000 0.34553  0.69640  0.99798  Biso   1.000  C
  C108     1.0000 0.39117  0.66519  0.99902  Biso   1.000  C
  H43      1.0000 0.34691  0.81660  0.97954  Biso   1.000  H
  H44      1.0000 0.26101  0.88645  0.97849  Biso   1.000  H
  H45      1.0000 0.13816  0.73658  0.01210  Biso   1.000  H
  H46      1.0000 0.22578  0.66637  0.01280  Biso   1.000  H
  C109     1.0000 0.70743  0.73535  0.00414  Biso   1.000  C
  C110     1.0000 0.76699  0.71346  0.99590  Biso   1.000  C
  C111     1.0000 0.81698  0.75377  0.99636  Biso   1.000  C
  C112     1.0000 0.80815  0.81674  0.00485  Biso   1.000  C
  C113     1.0000 0.74809  0.83777  0.01376  Biso   1.000  C
  C114     1.0000 0.69863  0.79768  0.01338  Biso   1.000  C
  C115     1.0000 0.65470  0.69514  0.00270  Biso   1.000  C
  C116     1.0000 0.60889  0.66404  0.00172  Biso   1.000  C
  H47      1.0000 0.77480  0.66535  0.98873  Biso   1.000  H
  H48      1.0000 0.86228  0.73578  0.98929  Biso   1.000  H
  H49      1.0000 0.73892  0.88565  0.02086  Biso   1.000  H
  H50      1.0000 0.65317  0.81558  0.01999  Biso   1.000  H
  C117     1.0000 0.70770  0.26403  0.99582  Biso   1.000  C
  C118     1.0000 0.76714  0.28582  0.00486  Biso   1.000  C
  C119     1.0000 0.81704  0.24552  0.00428  Biso   1.000  C
  C120     1.0000 0.80815  0.18271  0.99487  Biso   1.000  C
  C121     1.0000 0.74822  0.16178  0.98511  Biso   1.000  C
  C122     1.0000 0.69883  0.20188  0.98561  Biso   1.000  C
  C123     1.0000 0.65518  0.30424  0.99748  Biso   1.000  C
  C124     1.0000 0.60966  0.33559  0.99862  Biso   1.000  C
  H51      1.0000 0.77491  0.33382  0.01278  Biso   1.000  H
  H52      1.0000 0.86229  0.26336  0.01202  Biso   1.000  H
  H53      1.0000 0.73911  0.11401  0.97726  Biso   1.000  H
  H54      1.0000 0.65340  0.18415  0.97837  Biso   1.000  H
  C125     1.0000 0.00386  0.26517  0.29254  Biso   1.000  C
  C126     1.0000 0.99428  0.28685  0.23310  Biso   1.000  C
  C127     1.0000 0.99482  0.24649  0.18316  Biso   1.000  C
  C128     1.0000 0.00472  0.18375  0.19201  Biso   1.000  C
  C129     1.0000 0.01504  0.16300  0.25194  Biso   1.000  C
  C130     1.0000 0.01457  0.20311  0.30131  Biso   1.000  C
  C131     1.0000 0.00228  0.30524  0.34528  Biso   1.000  C
  C132     1.0000 0.00130  0.33614  0.39117  Biso   1.000  C
  H55      1.0000 0.98596  0.33479  0.22537  Biso   1.000  H
  H56      1.0000 0.98664  0.26422  0.13794  Biso   1.000  H
  H57      1.0000 0.02331  0.11532  0.26110  Biso   1.000  H
  H58      1.0000 0.02224  0.18543  0.34669  Biso   1.000  H
  C133     1.0000 0.99564  0.26407  0.70729  Biso   1.000  C
  C134     1.0000 0.98384  0.20219  0.69873  Biso   1.000  C
  C135     1.0000 0.98326  0.16225  0.74819  Biso   1.000  C
  C136     1.0000 0.99456  0.18304  0.80791  Biso   1.000  C
  C137     1.0000 0.00544  0.24563  0.81655  Biso   1.000  C
  C138     1.0000 0.00609  0.28581  0.76654  Biso   1.000  C
  C139     1.0000 0.99747  0.30395  0.65457  Biso   1.000  C
  C140     1.0000 0.99864  0.33496  0.60885  Biso   1.000  C
  H59      1.0000 0.97546  0.18453  0.65347  Biso   1.000  H
  H60      1.0000 0.97418  0.11466  0.73927  Biso   1.000  H
  H61      1.0000 0.01439  0.26332  0.86163  Biso   1.000  H
  H62      1.0000 0.01523  0.33364  0.77404  Biso   1.000  H
  C141     1.0000 0.00430  0.73344  0.70877  Biso   1.000  C
  C142     1.0000 0.01343  0.79566  0.69926  Biso   1.000  C
  C143     1.0000 0.01386  0.83623  0.74827  Biso   1.000  C
  C144     1.0000 0.00510  0.81577  0.80853  Biso   1.000  C
  C145     1.0000 0.99669  0.75290  0.81807  Biso   1.000  C
  C146     1.0000 0.99620  0.71210  0.76853  Biso   1.000  C
  C147     1.0000 0.00280  0.69282  0.65648  Biso   1.000  C
  C148     1.0000 0.00180  0.66153  0.61087  Biso   1.000  C
  H63      1.0000 0.01992  0.81308  0.65360  Biso   1.000  H
  H64      1.0000 0.02087  0.88401  0.73857  Biso   1.000  H
  H65      1.0000 0.98973  0.73538  0.86357  Biso   1.000  H
  H66      1.0000 0.98910  0.66406  0.77682  Biso   1.000  H
  C149     1.0000 0.99599  0.73538  0.29229  Biso   1.000  C
  C150     1.0000 0.00583  0.71376  0.23291  Biso   1.000  C
  C151     1.0000 0.00518  0.75411  0.18307  Biso   1.000  C
  C152     1.0000 0.99490  0.81676  0.19202  Biso   1.000  C
  C153     1.0000 0.98426  0.83746  0.25189  Biso   1.000  C
  C154     1.0000 0.98484  0.79733  0.30118  Biso   1.000  C
  C155     1.0000 0.99776  0.69530  0.34482  Biso   1.000  C
  C156     1.0000 0.99892  0.66415  0.39042  Biso   1.000  C
  H67      1.0000 0.01446  0.66587  0.22518  Biso   1.000  H
  H68      1.0000 0.01361  0.73649  0.13786  Biso   1.000  H
  H69      1.0000 0.97570  0.88510  0.26104  Biso   1.000  H
  H70      1.0000 0.97696  0.81489  0.34657  Biso   1.000  H
  C157     1.0000 0.54588  0.13647  0.09098  Biso   1.000  C
  C158     1.0000 0.54540  0.16781  0.03520  Biso   1.000  C
  C159     1.0000 0.54499  0.13683  0.97930  Biso   1.000  C
  C160     1.0000 0.54532  0.07232  0.97875  Biso   1.000  C
  C161     1.0000 0.54554  0.03964  0.03459  Biso   1.000  C
  C162     1.0000 0.54570  0.07177  0.09085  Biso   1.000  C
  C163     1.0000 0.54566  0.03824  0.14538  Biso   1.000  C
  C164     1.0000 0.54538  0.97480  0.14495  Biso   1.000  C
  C165     1.0000 0.54536  0.94191  0.08996  Biso   1.000  C
  C166     1.0000 0.54559  0.97462  0.03411  Biso   1.000  C
  C167     1.0000 0.54542  0.03960  0.92376  Biso   1.000  C
  C168     1.0000 0.54578  0.97617  0.92328  Biso   1.000  C
  C169     1.0000 0.54583  0.94257  0.97780  Biso   1.000  C
  C170     1.0000 0.54610  0.87789  0.97753  Biso   1.000  C
  C171     1.0000 0.54561  0.84642  0.03325  Biso   1.000  C
  C172     1.0000 0.54511  0.87728  0.08931  Biso   1.000  C
  H71      1.0000 0.54573  0.06091  0.18911  Biso   1.000  H
  H72      1.0000 0.54528  0.95163  0.18841  Biso   1.000  H
  H73      1.0000 0.54531  0.06286  0.88036  Biso   1.000  H
  H74      1.0000 0.54591  0.95357  0.87952  Biso   1.000  H
  H75      1.0000 0.54532  0.21719  0.03518  Biso   1.000  H
  H76      1.0000 0.54561  0.79700  0.03298  Biso   1.000  H
  C173     1.0000 0.91730  0.50907  0.97545  Biso   1.000  C
  C174     1.0000 0.88595  0.50854  0.03117  Biso   1.000  C
  C175     1.0000 0.91691  0.50810  0.08704  Biso   1.000  C
  C176     1.0000 0.98140  0.50844  0.08764  Biso   1.000  C
  C177     1.0000 0.01409  0.50871  0.03183  Biso   1.000  C
  C178     1.0000 0.98198  0.50890  0.97556  Biso   1.000  C
  C179     1.0000 0.01550  0.50891  0.92102  Biso   1.000  C
  C180     1.0000 0.07893  0.50865  0.92147  Biso   1.000  C
  C181     1.0000 0.11179  0.50859  0.97648  Biso   1.000  C
  C182     1.0000 0.07907  0.50876  0.03231  Biso   1.000  C
  C183     1.0000 0.01409  0.50850  0.14265  Biso   1.000  C
  C184     1.0000 0.07750  0.50887  0.14315  Biso   1.000  C
  C185     1.0000 0.11110  0.50897  0.08863  Biso   1.000  C
  C186     1.0000 0.17575  0.50925  0.08887  Biso   1.000  C
  C187     1.0000 0.20724  0.50882  0.03321  Biso   1.000  C
  C188     1.0000 0.17640  0.50836  0.97718  Biso   1.000  C
  H77      1.0000 0.99283  0.50901  0.87730  Biso   1.000  H
  H78      1.0000 0.10213  0.50858  0.87802  Biso   1.000  H
  H79      1.0000 0.99080  0.50835  0.18604  Biso   1.000  H
  H80      1.0000 0.10011  0.50897  0.18691  Biso   1.000  H
  H81      1.0000 0.83656  0.50845  0.03119  Biso   1.000  H
  H82      1.0000 0.25666  0.50882  0.03349  Biso   1.000  H
  C189     1.0000 0.91489  0.95282  0.53369  Biso   1.000  C
  C190     1.0000 0.88337  0.00844  0.53322  Biso   1.000  C
  C191     1.0000 0.91423  0.06445  0.53287  Biso   1.000  C
  C192     1.0000 0.97881  0.06516  0.53324  Biso   1.000  C
  C193     1.0000 0.01151  0.00935  0.53346  Biso   1.000  C
  C194     1.0000 0.97951  0.95305  0.53357  Biso   1.000  C
  C195     1.0000 0.01308  0.89852  0.53354  Biso   1.000  C
  C196     1.0000 0.07646  0.89902  0.53333  Biso   1.000  C
  C197     1.0000 0.10911  0.95404  0.53335  Biso   1.000  C
  C198     1.0000 0.07645  0.00984  0.53355  Biso   1.000  C
  C199     1.0000 0.01163  0.12019  0.53338  Biso   1.000  C
  C200     1.0000 0.07503  0.12064  0.53376  Biso   1.000  C
  C201     1.0000 0.10853  0.06609  0.53382  Biso   1.000  C
  C202     1.0000 0.17316  0.06619  0.53411  Biso   1.000  C
  C203     1.0000 0.20455  0.01050  0.53366  Biso   1.000  C
  C204     1.0000 0.17356  0.95466  0.53317  Biso   1.000  C
  H83      1.0000 0.99049  0.85475  0.53357  Biso   1.000  H
  H84      1.0000 0.09974  0.85562  0.53323  Biso   1.000  H
  H85      1.0000 0.98844  0.16364  0.53328  Biso   1.000  H
  H86      1.0000 0.09769  0.16438  0.53391  Biso   1.000  H
  H87      1.0000 0.83395  0.00815  0.53312  Biso   1.000  H
  H88      1.0000 0.25394  0.01049  0.53367  Biso   1.000  H
  O33      1.0000 0.54706  0.42698  0.37707  Biso   1.000  O
  O34      1.0000 0.54329  0.42759  0.68945  Biso   1.000  O
  O35      1.0000 0.62671  0.35130  0.53083  Biso   1.000  O
  O36      1.0000 0.46311  0.35148  0.53576  Biso   1.000  O
  O37      1.0000 0.38730  0.42422  0.53532  Biso   1.000  O
  O38      1.0000 0.70285  0.42373  0.53110  Biso   1.000  O
  O39      1.0000 0.54336  0.35173  0.61732  Biso   1.000  O
  O40      1.0000 0.54661  0.35138  0.44944  Biso   1.000  O
  Zr7      1.0000 0.54504  0.40098  0.53331  Biso   1.000  Zr
  O41      1.0000 0.48948  0.45340  0.58797  Biso   1.000  O
  O42      1.0000 0.60093  0.45306  0.47861  Biso   1.000  O
  C205     1.0000 0.54783  0.37026  0.39314  Biso   1.000  C
  C206     1.0000 0.54222  0.37086  0.67352  Biso   1.000  C
  C207     1.0000 0.68347  0.36749  0.52979  Biso   1.000  C
  C208     1.0000 0.40638  0.36789  0.53661  Biso   1.000  C
  H89      1.0000 0.62643  0.42748  0.61383  Biso   1.000  H
  O43      1.0000 0.60087  0.45345  0.58748  Biso   1.000  O
  H90      1.0000 0.46385  0.42749  0.45264  Biso   1.000  H
  O44      1.0000 0.48948  0.45343  0.47897  Biso   1.000  O
  O45      1.0000 0.54782  0.58971  0.68941  Biso   1.000  O
  O46      1.0000 0.54296  0.58923  0.37694  Biso   1.000  O
  O47      1.0000 0.70335  0.51003  0.61722  Biso   1.000  O
  O48      1.0000 0.38768  0.50691  0.61775  Biso   1.000  O
  O49      1.0000 0.38734  0.51037  0.44897  Biso   1.000  O
  O50      1.0000 0.70296  0.50644  0.44875  Biso   1.000  O
  O51      1.0000 0.62725  0.66551  0.53526  Biso   1.000  O
  O52      1.0000 0.46377  0.66558  0.53080  Biso   1.000  O
  O53      1.0000 0.70318  0.59289  0.53480  Biso   1.000  O
  O54      1.0000 0.38768  0.59311  0.53141  Biso   1.000  O
  O55      1.0000 0.62708  0.51067  0.68918  Biso   1.000  O
  O56      1.0000 0.62641  0.50581  0.37708  Biso   1.000  O
  O57      1.0000 0.46373  0.51057  0.37714  Biso   1.000  O
  O58      1.0000 0.46430  0.50645  0.68937  Biso   1.000  O
  O59      1.0000 0.54728  0.66543  0.61716  Biso   1.000  O
  O60      1.0000 0.54365  0.66514  0.44903  Biso   1.000  O
  Zr8      1.0000 0.54555  0.50860  0.63876  Biso   1.000  Zr
  Zr9      1.0000 0.54511  0.50823  0.42764  Biso   1.000  Zr
  Zr10     1.0000 0.65454  0.50835  0.53307  Biso   1.000  Zr
  Zr11     1.0000 0.43604  0.50858  0.53331  Biso   1.000  Zr
  Zr12     1.0000 0.54547  0.61592  0.53313  Biso   1.000  Zr
  O61      1.0000 0.48951  0.56367  0.47861  Biso   1.000  O
  O62      1.0000 0.60135  0.56375  0.58774  Biso   1.000  O
  C209     1.0000 0.54865  0.64644  0.67345  Biso   1.000  C
  C210     1.0000 0.54218  0.64597  0.39283  Biso   1.000  C
  C211     1.0000 0.68396  0.51133  0.67336  Biso   1.000  C
  C212     1.0000 0.40739  0.50563  0.67379  Biso   1.000  C
  C213     1.0000 0.40685  0.51154  0.39284  Biso   1.000  C
  C214     1.0000 0.68330  0.50502  0.39272  Biso   1.000  C
  C215     1.0000 0.68399  0.64922  0.53610  Biso   1.000  C
  C216     1.0000 0.40702  0.64933  0.52998  Biso   1.000  C
  H91      1.0000 0.62639  0.58917  0.45231  Biso   1.000  H
  O63      1.0000 0.60084  0.56327  0.47874  Biso   1.000  O
  H92      1.0000 0.46442  0.58956  0.61394  Biso   1.000  H
  O64      1.0000 0.48990  0.56354  0.58754  Biso   1.000  O
  C217     1.0000 0.54959  0.77305  0.82551  Biso   1.000  C
  C218     1.0000 0.54117  0.79482  0.76590  Biso   1.000  C
  C219     1.0000 0.54169  0.75443  0.71591  Biso   1.000  C
  C220     1.0000 0.55042  0.69150  0.72479  Biso   1.000  C
  C221     1.0000 0.55957  0.67062  0.78488  Biso   1.000  C
  C222     1.0000 0.55913  0.71076  0.83432  Biso   1.000  C
  C223     1.0000 0.54805  0.81327  0.87833  Biso   1.000  C
  C224     1.0000 0.54703  0.84432  0.92423  Biso   1.000  C
  H93      1.0000 0.53379  0.84289  0.75805  Biso   1.000  H
  H94      1.0000 0.53447  0.77232  0.67059  Biso   1.000  H
  H95      1.0000 0.56690  0.62280  0.79413  Biso   1.000  H
  H96      1.0000 0.56591  0.69292  0.87977  Biso   1.000  H
  C225     1.0000 0.54132  0.77204  0.24073  Biso   1.000  C
  C226     1.0000 0.53100  0.70989  0.23206  Biso   1.000  C
  C227     1.0000 0.53048  0.66990  0.28155  Biso   1.000  C
  C228     1.0000 0.54035  0.69086  0.34149  Biso   1.000  C
  C229     1.0000 0.54980  0.75368  0.35022  Biso   1.000  C
  C230     1.0000 0.55039  0.79391  0.30018  Biso   1.000  C
  C231     1.0000 0.54300  0.81209  0.18795  Biso   1.000  C
  C232     1.0000 0.54412  0.84323  0.14220  Biso   1.000  C
  H97      1.0000 0.52369  0.69205  0.18669  Biso   1.000  H
  H98      1.0000 0.52256  0.62213  0.27248  Biso   1.000  H
  H99      1.0000 0.55758  0.77157  0.39545  Biso   1.000  H
  H100     1.0000 0.55837  0.84192  0.30785  Biso   1.000  H
  C233     1.0000 0.54880  0.24248  0.24210  Biso   1.000  C
  C234     1.0000 0.54208  0.22105  0.30203  Biso   1.000  C
  C235     1.0000 0.54245  0.26188  0.35162  Biso   1.000  C
  C236     1.0000 0.54936  0.32495  0.34204  Biso   1.000  C
  C237     1.0000 0.55669  0.34554  0.28160  Biso   1.000  C
  C238     1.0000 0.55639  0.30493  0.23255  Biso   1.000  C
  C239     1.0000 0.54754  0.20170  0.18974  Biso   1.000  C
  C240     1.0000 0.54667  0.17025  0.14413  Biso   1.000  C
  H101     1.0000 0.53621  0.17286  0.31045  Biso   1.000  H
  H102     1.0000 0.53668  0.24420  0.39722  Biso   1.000  H
  H103     1.0000 0.56252  0.39346  0.27182  Biso   1.000  H
  H104     1.0000 0.56181  0.32251  0.18681  Biso   1.000  H
  C241     1.0000 0.54128  0.24436  0.82517  Biso   1.000  C
  C242     1.0000 0.54960  0.22259  0.76558  Biso   1.000  C
  C243     1.0000 0.54907  0.26300  0.71571  Biso   1.000  C
  C244     1.0000 0.54043  0.32590  0.72476  Biso   1.000  C
  C245     1.0000 0.53135  0.34678  0.78484  Biso   1.000  C
  C246     1.0000 0.53181  0.30661  0.83417  Biso   1.000  C
  C247     1.0000 0.54287  0.20410  0.87775  Biso   1.000  C
  C248     1.0000 0.54396  0.17282  0.92336  Biso   1.000  C
  H105     1.0000 0.55692  0.17452  0.75768  Biso   1.000  H
  H106     1.0000 0.55622  0.24517  0.67036  Biso   1.000  H
  H107     1.0000 0.52410  0.39461  0.79413  Biso   1.000  H
  H108     1.0000 0.52510  0.32436  0.87967  Biso   1.000  H
  C249     1.0000 0.81129  0.51215  0.82455  Biso   1.000  C
  C250     1.0000 0.83276  0.50470  0.76476  Biso   1.000  C
  C251     1.0000 0.79202  0.50512  0.71515  Biso   1.000  C
  C252     1.0000 0.72903  0.51282  0.72459  Biso   1.000  C
  C253     1.0000 0.70838  0.52086  0.78489  Biso   1.000  C
  C254     1.0000 0.74891  0.52051  0.83400  Biso   1.000  C
  C255     1.0000 0.85202  0.51082  0.87686  Biso   1.000  C
  C256     1.0000 0.88351  0.50990  0.92238  Biso   1.000  C
  H109     1.0000 0.88089  0.49821  0.75646  Biso   1.000  H
  H110     1.0000 0.80972  0.49874  0.66964  Biso   1.000  H
  H111     1.0000 0.66050  0.52729  0.79451  Biso   1.000  H
  H112     1.0000 0.73135  0.52648  0.87967  Biso   1.000  H
  C257     1.0000 0.28175  0.50482  0.82605  Biso   1.000  C
  C258     1.0000 0.34398  0.49495  0.83474  Biso   1.000  C
  C259     1.0000 0.38392  0.49448  0.78521  Biso   1.000  C
  C260     1.0000 0.36277  0.50393  0.72529  Biso   1.000  C
  C261     1.0000 0.29989  0.51301  0.71659  Biso   1.000  C
  C262     1.0000 0.25974  0.51356  0.76663  Biso   1.000  C
  C263     1.0000 0.24170  0.50638  0.87874  Biso   1.000  C
  C264     1.0000 0.21049  0.50742  0.92438  Biso   1.000  C
  H113     1.0000 0.36190  0.48794  0.88012  Biso   1.000  H
  H114     1.0000 0.43175  0.48689  0.79422  Biso   1.000  H
  H115     1.0000 0.28188  0.52050  0.67137  Biso   1.000  H
  H116     1.0000 0.21167  0.52120  0.75899  Biso   1.000  H
  C265     1.0000 0.28065  0.51254  0.24064  Biso   1.000  C
  C266     1.0000 0.25876  0.50430  0.30020  Biso   1.000  C
  C267     1.0000 0.29907  0.50476  0.35019  Biso   1.000  C
  C268     1.0000 0.36204  0.51325  0.34136  Biso   1.000  C
  C269     1.0000 0.38307  0.52216  0.28130  Biso   1.000  C
  C270     1.0000 0.34298  0.52178  0.23184  Biso   1.000  C
  C271     1.0000 0.24044  0.51110  0.18791  Biso   1.000  C
  C272     1.0000 0.20934  0.51012  0.14210  Biso   1.000  C
  H117     1.0000 0.21065  0.49713  0.30801  Biso   1.000  H
  H118     1.0000 0.28108  0.49769  0.39549  Biso   1.000  H
  H119     1.0000 0.43095  0.52926  0.27213  Biso   1.000  H
  H120     1.0000 0.36088  0.52839  0.18638  Biso   1.000  H
  C273     1.0000 0.80933  0.50422  0.24091  Biso   1.000  C
  C274     1.0000 0.83112  0.51326  0.30035  Biso   1.000  C
  C275     1.0000 0.79082  0.51268  0.35025  Biso   1.000  C
  C276     1.0000 0.72801  0.50327  0.34136  Biso   1.000  C
  C277     1.0000 0.70708  0.49351  0.28143  Biso   1.000  C
  C278     1.0000 0.74718  0.49401  0.23204  Biso   1.000  C
  C279     1.0000 0.84954  0.50588  0.18839  Biso   1.000  C
  C280     1.0000 0.88089  0.50702  0.14287  Biso   1.000  C
  H121     1.0000 0.87912  0.52118  0.30812  Biso   1.000  H
  H122     1.0000 0.80866  0.52042  0.39550  Biso   1.000  H
  H123     1.0000 0.65931  0.48566  0.27232  Biso   1.000  H
  H124     1.0000 0.72945  0.48677  0.18661  Biso   1.000  H
  C281     1.0000 0.81047  0.80094  0.53707  Biso   1.000  C
  C282     1.0000 0.83215  0.74150  0.52749  Biso   1.000  C
  C283     1.0000 0.79179  0.69156  0.52803  Biso   1.000  C
  C284     1.0000 0.72905  0.70041  0.53793  Biso   1.000  C
  C285     1.0000 0.70830  0.76034  0.54825  Biso   1.000  C
  C286     1.0000 0.74841  0.80971  0.54778  Biso   1.000  C
  C287     1.0000 0.85054  0.85368  0.53549  Biso   1.000  C
  C288     1.0000 0.88144  0.89957  0.53451  Biso   1.000  C
  H125     1.0000 0.88009  0.73377  0.51917  Biso   1.000  H
  H126     1.0000 0.80952  0.64634  0.51985  Biso   1.000  H
  H127     1.0000 0.66062  0.76950  0.55652  Biso   1.000  H
  H128     1.0000 0.73073  0.85509  0.55545  Biso   1.000  H
  C289     1.0000 0.80937  0.21569  0.52885  Biso   1.000  C
  C290     1.0000 0.74749  0.20713  0.51705  Biso   1.000  C
  C291     1.0000 0.70755  0.25659  0.51647  Biso   1.000  C
  C292     1.0000 0.72834  0.31631  0.52777  Biso   1.000  C
  C293     1.0000 0.79093  0.32495  0.53865  Biso   1.000  C
  C294     1.0000 0.83111  0.27494  0.53930  Biso   1.000  C
  C295     1.0000 0.84925  0.16297  0.53068  Biso   1.000  C
  C296     1.0000 0.88026  0.11725  0.53185  Biso   1.000  C
  H129     1.0000 0.72983  0.16187  0.50867  Biso   1.000  H
  H130     1.0000 0.65996  0.24767  0.50739  Biso   1.000  H
  H131     1.0000 0.80862  0.37003  0.54760  Biso   1.000  H
  H132     1.0000 0.87894  0.28244  0.54844  Biso   1.000  H
  C297     1.0000 0.27874  0.21717  0.53751  Biso   1.000  C
  C298     1.0000 0.34096  0.20766  0.54664  Biso   1.000  C
  C299     1.0000 0.38153  0.25667  0.54707  Biso   1.000  C
  C300     1.0000 0.36107  0.31693  0.53831  Biso   1.000  C
  C301     1.0000 0.29820  0.32647  0.52990  Biso   1.000  C
  C302     1.0000 0.25740  0.27693  0.52941  Biso   1.000  C
  C303     1.0000 0.23812  0.16488  0.53601  Biso   1.000  C
  C304     1.0000 0.20683  0.11927  0.53501  Biso   1.000  C
  H133     1.0000 0.35838  0.16200  0.55313  Biso   1.000  H
  H134     1.0000 0.42931  0.24697  0.55408  Biso   1.000  H
  H135     1.0000 0.28068  0.37197  0.52294  Biso   1.000  H
  H136     1.0000 0.20936  0.28522  0.52231  Biso   1.000  H
  C305     1.0000 0.28068  0.80069  0.52920  Biso   1.000  C
  C306     1.0000 0.25906  0.74131  0.53904  Biso   1.000  C
  C307     1.0000 0.29941  0.69147  0.53839  Biso   1.000  C
  C308     1.0000 0.36206  0.70042  0.52811  Biso   1.000  C
  C309     1.0000 0.38276  0.76029  0.51747  Biso   1.000  C
  C310     1.0000 0.34263  0.80958  0.51805  Biso   1.000  C
  C311     1.0000 0.24060  0.85322  0.53097  Biso   1.000  C
  C312     1.0000 0.20945  0.89882  0.53213  Biso   1.000  C
  H137     1.0000 0.21117  0.73358  0.54767  Biso   1.000  H
  H138     1.0000 0.28179  0.64626  0.54682  Biso   1.000  H
  H139     1.0000 0.43040  0.76944  0.50891  Biso   1.000  H
