data_image0
_cell_length_a       18.0703
_cell_length_b       18.0703
_cell_length_c       18.0703
_cell_angle_alpha    60
_cell_angle_beta     60
_cell_angle_gamma    60

_symmetry_space_group_name_H-M    "P 1"
_symmetry_int_tables_number       1

loop_
  _symmetry_equiv_pos_as_xyz
  'x, y, z'

loop_
  _atom_site_label
  _atom_site_occupancy
  _atom_site_fract_x
  _atom_site_fract_y
  _atom_site_fract_z
  _atom_site_thermal_displace_type
  _atom_site_B_iso_or_equiv
  _atom_site_type_symbol
  Zn1      1.0000 0.29350  0.29350  0.29350  Biso   1.000  Zn
  Zn2      1.0000 0.29350  0.29350  0.11950  Biso   1.000  Zn
  Zn3      1.0000 0.29350  0.11950  0.29350  Biso   1.000  Zn
  Zn4      1.0000 0.11950  0.29350  0.29350  Biso   1.000  Zn
  Zn5      1.0000 0.70650  0.70650  0.70650  Biso   1.000  Zn
  Zn6      1.0000 0.70650  0.70650  0.88050  Biso   1.000  Zn
  Zn7      1.0000 0.88050  0.70650  0.70650  Biso   1.000  Zn
  Zn8      1.0000 0.70650  0.88050  0.70650  Biso   1.000  Zn
  C1       1.0000 0.47340  0.47340  0.96080  Biso   1.000  C
  C2       1.0000 0.47340  0.47340  0.09240  Biso   1.000  C
  C3       1.0000 0.96080  0.09240  0.47340  Biso   1.000  C
  C4       1.0000 0.09240  0.96080  0.47340  Biso   1.000  C
  C5       1.0000 0.47340  0.96080  0.09240  Biso   1.000  C
  C6       1.0000 0.47340  0.09240  0.96080  Biso   1.000  C
  C7       1.0000 0.96080  0.47340  0.47340  Biso   1.000  C
  C8       1.0000 0.09240  0.47340  0.47340  Biso   1.000  C
  C9       1.0000 0.47340  0.09240  0.47340  Biso   1.000  C
  C10      1.0000 0.47340  0.96080  0.47340  Biso   1.000  C
  C11      1.0000 0.96080  0.47340  0.09240  Biso   1.000  C
  C12      1.0000 0.09240  0.47340  0.96080  Biso   1.000  C
  C13      1.0000 0.52660  0.52660  0.03920  Biso   1.000  C
  C14      1.0000 0.52660  0.52660  0.90760  Biso   1.000  C
  C15      1.0000 0.90760  0.03920  0.52660  Biso   1.000  C
  C16      1.0000 0.03920  0.90760  0.52660  Biso   1.000  C
  C17      1.0000 0.03920  0.52660  0.90760  Biso   1.000  C
  C18      1.0000 0.90760  0.52660  0.03920  Biso   1.000  C
  C19      1.0000 0.52660  0.03920  0.52660  Biso   1.000  C
  C20      1.0000 0.52660  0.90760  0.52660  Biso   1.000  C
  C21      1.0000 0.90760  0.52660  0.52660  Biso   1.000  C
  C22      1.0000 0.03920  0.52660  0.52660  Biso   1.000  C
  C23      1.0000 0.52660  0.03920  0.90760  Biso   1.000  C
  C24      1.0000 0.52660  0.90760  0.03920  Biso   1.000  C
  C25      1.0000 0.38820  0.38820  0.11180  Biso   1.000  C
  C26      1.0000 0.44590  0.44590  0.05410  Biso   1.000  C
  C27      1.0000 0.11180  0.11180  0.38820  Biso   1.000  C
  C28      1.0000 0.05410  0.05410  0.44590  Biso   1.000  C
  C29      1.0000 0.38820  0.11180  0.11180  Biso   1.000  C
  C30      1.0000 0.44590  0.05410  0.05410  Biso   1.000  C
  C31      1.0000 0.11180  0.38820  0.38820  Biso   1.000  C
  C32      1.0000 0.05410  0.44590  0.44590  Biso   1.000  C
  C33      1.0000 0.38820  0.11180  0.38820  Biso   1.000  C
  C34      1.0000 0.44590  0.05410  0.44590  Biso   1.000  C
  C35      1.0000 0.11180  0.38820  0.11180  Biso   1.000  C
  C36      1.0000 0.05410  0.44590  0.05410  Biso   1.000  C
  C37      1.0000 0.61180  0.61180  0.88820  Biso   1.000  C
  C38      1.0000 0.55410  0.55410  0.94590  Biso   1.000  C
  C39      1.0000 0.88820  0.88820  0.61180  Biso   1.000  C
  C40      1.0000 0.94590  0.94590  0.55410  Biso   1.000  C
  C41      1.0000 0.88820  0.61180  0.88820  Biso   1.000  C
  C42      1.0000 0.94590  0.55410  0.94590  Biso   1.000  C
  C43      1.0000 0.61180  0.88820  0.61180  Biso   1.000  C
  C44      1.0000 0.55410  0.94590  0.55410  Biso   1.000  C
  C45      1.0000 0.88820  0.61180  0.61180  Biso   1.000  C
  C46      1.0000 0.94590  0.55410  0.55410  Biso   1.000  C
  C47      1.0000 0.61180  0.88820  0.88820  Biso   1.000  C
  C48      1.0000 0.55410  0.94590  0.94590  Biso   1.000  C
  O1       1.0000 0.25000  0.25000  0.25000  Biso   1.000  O
  O2       1.0000 0.75000  0.75000  0.75000  Biso   1.000  O
  O3       1.0000 0.36569  0.36569  0.19789  Biso   1.000  O
  O4       1.0000 0.36569  0.36569  0.07073  Biso   1.000  O
  O5       1.0000 0.19789  0.07073  0.36569  Biso   1.000  O
  O6       1.0000 0.07073  0.19789  0.36569  Biso   1.000  O
  O7       1.0000 0.36569  0.19789  0.07073  Biso   1.000  O
  O8       1.0000 0.36569  0.07073  0.19789  Biso   1.000  O
  O9       1.0000 0.19789  0.36569  0.36569  Biso   1.000  O
  O10      1.0000 0.07073  0.36569  0.36569  Biso   1.000  O
  O11      1.0000 0.36569  0.07073  0.36569  Biso   1.000  O
  O12      1.0000 0.36569  0.19789  0.36569  Biso   1.000  O
  O13      1.0000 0.19789  0.36569  0.07073  Biso   1.000  O
  O14      1.0000 0.07073  0.36569  0.19789  Biso   1.000  O
  O15      1.0000 0.63431  0.63431  0.80211  Biso   1.000  O
  O16      1.0000 0.63431  0.63431  0.92927  Biso   1.000  O
  O17      1.0000 0.92927  0.80211  0.63431  Biso   1.000  O
  O18      1.0000 0.80211  0.92927  0.63431  Biso   1.000  O
  O19      1.0000 0.80211  0.63431  0.92927  Biso   1.000  O
  O20      1.0000 0.92927  0.63431  0.80211  Biso   1.000  O
  O21      1.0000 0.63431  0.80211  0.63431  Biso   1.000  O
  O22      1.0000 0.63431  0.92927  0.63431  Biso   1.000  O
  O23      1.0000 0.92927  0.63431  0.63431  Biso   1.000  O
  O24      1.0000 0.80211  0.63431  0.63431  Biso   1.000  O
  O25      1.0000 0.63431  0.80211  0.92927  Biso   1.000  O
  O26      1.0000 0.63431  0.92927  0.80211  Biso   1.000  O
  H1       1.0000 0.45110  0.45110  0.92847  Biso   1.000  H
  H2       1.0000 0.45110  0.45110  0.16934  Biso   1.000  H
  H3       1.0000 0.92847  0.16934  0.45110  Biso   1.000  H
  H4       1.0000 0.16934  0.92847  0.45110  Biso   1.000  H
  H5       1.0000 0.45110  0.92847  0.16934  Biso   1.000  H
  H6       1.0000 0.45110  0.16934  0.92847  Biso   1.000  H
  H7       1.0000 0.92847  0.45110  0.45110  Biso   1.000  H
  H8       1.0000 0.16934  0.45110  0.45110  Biso   1.000  H
  H9       1.0000 0.45110  0.16934  0.45110  Biso   1.000  H
  H10      1.0000 0.45110  0.92847  0.45110  Biso   1.000  H
  H11      1.0000 0.92847  0.45110  0.16934  Biso   1.000  H
  H12      1.0000 0.16934  0.45110  0.92847  Biso   1.000  H
  H13      1.0000 0.54890  0.54890  0.07153  Biso   1.000  H
  H14      1.0000 0.54890  0.54890  0.83066  Biso   1.000  H
  H15      1.0000 0.83066  0.07153  0.54890  Biso   1.000  H
  H16      1.0000 0.07153  0.83066  0.54890  Biso   1.000  H
  H17      1.0000 0.07153  0.54890  0.83066  Biso   1.000  H
  H18      1.0000 0.83066  0.54890  0.07153  Biso   1.000  H
  H19      1.0000 0.54890  0.07153  0.54890  Biso   1.000  H
  H20      1.0000 0.54890  0.83066  0.54890  Biso   1.000  H
  H21      1.0000 0.83066  0.54890  0.54890  Biso   1.000  H
  H22      1.0000 0.07153  0.54890  0.54890  Biso   1.000  H
  H23      1.0000 0.54890  0.07153  0.83066  Biso   1.000  H
  H24      1.0000 0.54890  0.83066  0.07153  Biso   1.000  H
  Zn9      1.0000 0.13269  0.00321  0.94887  Biso   1.000  Zn
  Zn10     1.0000 0.95869  0.00321  0.12287  Biso   1.000  Zn
  Zn11     1.0000 0.95869  0.17721  0.94887  Biso   1.000  Zn
  Zn12     1.0000 0.95869  0.00321  0.94887  Biso   1.000  Zn
  Zn13     1.0000 0.37169  0.59021  0.53587  Biso   1.000  Zn
  Zn14     1.0000 0.54569  0.59021  0.36187  Biso   1.000  Zn
  Zn15     1.0000 0.54569  0.59021  0.53587  Biso   1.000  Zn
  Zn16     1.0000 0.54569  0.41621  0.53587  Biso   1.000  Zn
  C49      1.0000 0.15979  0.82331  0.28157  Biso   1.000  C
  C50      1.0000 0.29139  0.82331  0.14997  Biso   1.000  C
  C51      1.0000 0.77879  0.20431  0.76897  Biso   1.000  C
  C52      1.0000 0.77879  0.33591  0.76897  Biso   1.000  C
  C53      1.0000 0.77879  0.33591  0.14997  Biso   1.000  C
  C54      1.0000 0.77879  0.20431  0.28157  Biso   1.000  C
  C55      1.0000 0.15979  0.82331  0.76897  Biso   1.000  C
  C56      1.0000 0.29139  0.82331  0.76897  Biso   1.000  C
  C57      1.0000 0.29139  0.20431  0.76897  Biso   1.000  C
  C58      1.0000 0.15979  0.33591  0.76897  Biso   1.000  C
  C59      1.0000 0.77879  0.82331  0.14997  Biso   1.000  C
  C60      1.0000 0.77879  0.82331  0.28157  Biso   1.000  C
  C61      1.0000 0.34459  0.77011  0.20317  Biso   1.000  C
  C62      1.0000 0.21299  0.77011  0.33477  Biso   1.000  C
  C63      1.0000 0.72559  0.25751  0.71577  Biso   1.000  C
  C64      1.0000 0.72559  0.38911  0.71577  Biso   1.000  C
  C65      1.0000 0.72559  0.77011  0.33477  Biso   1.000  C
  C66      1.0000 0.72559  0.77011  0.20317  Biso   1.000  C
  C67      1.0000 0.34459  0.25751  0.71577  Biso   1.000  C
  C68      1.0000 0.21299  0.38911  0.71577  Biso   1.000  C
  C69      1.0000 0.21299  0.77011  0.71577  Biso   1.000  C
  C70      1.0000 0.34459  0.77011  0.71577  Biso   1.000  C
  C71      1.0000 0.72559  0.25751  0.33477  Biso   1.000  C
  C72      1.0000 0.72559  0.38911  0.20317  Biso   1.000  C
  C73      1.0000 0.14039  0.90851  0.13057  Biso   1.000  C
  C74      1.0000 0.19809  0.85081  0.18827  Biso   1.000  C
  C75      1.0000 0.86399  0.18491  0.85417  Biso   1.000  C
  C76      1.0000 0.80629  0.24261  0.79647  Biso   1.000  C
  C77      1.0000 0.86399  0.18491  0.13057  Biso   1.000  C
  C78      1.0000 0.80629  0.24261  0.18827  Biso   1.000  C
  C79      1.0000 0.14039  0.90851  0.85417  Biso   1.000  C
  C80      1.0000 0.19809  0.85081  0.79647  Biso   1.000  C
  C81      1.0000 0.14039  0.18491  0.85417  Biso   1.000  C
  C82      1.0000 0.19809  0.24261  0.79647  Biso   1.000  C
  C83      1.0000 0.86399  0.90851  0.13057  Biso   1.000  C
  C84      1.0000 0.80629  0.85081  0.18827  Biso   1.000  C
  C85      1.0000 0.36399  0.68491  0.35417  Biso   1.000  C
  C86      1.0000 0.30629  0.74261  0.29647  Biso   1.000  C
  C87      1.0000 0.64039  0.40851  0.63057  Biso   1.000  C
  C88      1.0000 0.69809  0.35081  0.68827  Biso   1.000  C
  C89      1.0000 0.64039  0.68491  0.35417  Biso   1.000  C
  C90      1.0000 0.69809  0.74261  0.29647  Biso   1.000  C
  C91      1.0000 0.36399  0.40851  0.63057  Biso   1.000  C
  C92      1.0000 0.30629  0.35081  0.68827  Biso   1.000  C
  C93      1.0000 0.36399  0.68491  0.63057  Biso   1.000  C
  C94      1.0000 0.30629  0.74261  0.68827  Biso   1.000  C
  C95      1.0000 0.64039  0.40851  0.35417  Biso   1.000  C
  C96      1.0000 0.69809  0.35081  0.29647  Biso   1.000  C
  O27      1.0000 0.00219  0.04671  0.99237  Biso   1.000  O
  O28      1.0000 0.50219  0.54671  0.49237  Biso   1.000  O
  O29      1.0000 0.18146  0.93102  0.04448  Biso   1.000  O
  O30      1.0000 0.05430  0.93102  0.17164  Biso   1.000  O
  O31      1.0000 0.88650  0.22598  0.87668  Biso   1.000  O
  O32      1.0000 0.88650  0.09882  0.87668  Biso   1.000  O
  O33      1.0000 0.88650  0.09882  0.17164  Biso   1.000  O
  O34      1.0000 0.88650  0.22598  0.04448  Biso   1.000  O
  O35      1.0000 0.18146  0.93102  0.87668  Biso   1.000  O
  O36      1.0000 0.05430  0.93102  0.87668  Biso   1.000  O
  O37      1.0000 0.05430  0.22598  0.87668  Biso   1.000  O
  O38      1.0000 0.18146  0.09882  0.87668  Biso   1.000  O
  O39      1.0000 0.88650  0.93102  0.17164  Biso   1.000  O
  O40      1.0000 0.88650  0.93102  0.04448  Biso   1.000  O
  O41      1.0000 0.32292  0.66240  0.44026  Biso   1.000  O
  O42      1.0000 0.45008  0.66240  0.31310  Biso   1.000  O
  O43      1.0000 0.61788  0.49460  0.60806  Biso   1.000  O
  O44      1.0000 0.61788  0.36744  0.60806  Biso   1.000  O
  O45      1.0000 0.61788  0.66240  0.31310  Biso   1.000  O
  O46      1.0000 0.61788  0.66240  0.44026  Biso   1.000  O
  O47      1.0000 0.32292  0.49460  0.60806  Biso   1.000  O
  O48      1.0000 0.45008  0.36744  0.60806  Biso   1.000  O
  O49      1.0000 0.45008  0.66240  0.60806  Biso   1.000  O
  O50      1.0000 0.32292  0.66240  0.60806  Biso   1.000  O
  O51      1.0000 0.61788  0.49460  0.31310  Biso   1.000  O
  O52      1.0000 0.61788  0.36744  0.44026  Biso   1.000  O
  H25      1.0000 0.08286  0.84561  0.31390  Biso   1.000  H
  H26      1.0000 0.32373  0.84561  0.07303  Biso   1.000  H
  H27      1.0000 0.80110  0.12737  0.79127  Biso   1.000  H
  H28      1.0000 0.80110  0.36824  0.79127  Biso   1.000  H
  H29      1.0000 0.80110  0.36824  0.07303  Biso   1.000  H
  H30      1.0000 0.80110  0.12737  0.31390  Biso   1.000  H
  H31      1.0000 0.08286  0.84561  0.79127  Biso   1.000  H
  H32      1.0000 0.32373  0.84561  0.79127  Biso   1.000  H
  H33      1.0000 0.32373  0.12737  0.79127  Biso   1.000  H
  H34      1.0000 0.08286  0.36824  0.79127  Biso   1.000  H
  H35      1.0000 0.80110  0.84561  0.07303  Biso   1.000  H
  H36      1.0000 0.80110  0.84561  0.31390  Biso   1.000  H
  H37      1.0000 0.42152  0.74781  0.17084  Biso   1.000  H
  H38      1.0000 0.18065  0.74781  0.41171  Biso   1.000  H
  H39      1.0000 0.70328  0.22518  0.69347  Biso   1.000  H
  H40      1.0000 0.70328  0.46605  0.69347  Biso   1.000  H
  H41      1.0000 0.70328  0.74781  0.41171  Biso   1.000  H
  H42      1.0000 0.70328  0.74781  0.17084  Biso   1.000  H
  H43      1.0000 0.42152  0.22518  0.69347  Biso   1.000  H
  H44      1.0000 0.18065  0.46605  0.69347  Biso   1.000  H
  H45      1.0000 0.18065  0.74781  0.69347  Biso   1.000  H
  H46      1.0000 0.42152  0.74781  0.69347  Biso   1.000  H
  H47      1.0000 0.70328  0.22518  0.41171  Biso   1.000  H
