data_image0
_cell_length_a       12.706
_cell_length_b       12.706
_cell_length_c       23.817
_cell_angle_alpha    90
_cell_angle_beta     90
_cell_angle_gamma    90

_symmetry_space_group_name_H-M    "P 1"
_symmetry_int_tables_number       1

loop_
  _symmetry_equiv_pos_as_xyz
  'x, y, z'

loop_
  _atom_site_label
  _atom_site_occupancy
  _atom_site_fract_x
  _atom_site_fract_y
  _atom_site_fract_z
  _atom_site_thermal_displace_type
  _atom_site_B_iso_or_equiv
  _atom_site_type_symbol
  Zn1      1.0000 0.61758  0.00000  0.00000  Biso   1.000  Zn
  Zn2      1.0000 0.38242  0.00000  0.00000  Biso   1.000  Zn
  Zn3      1.0000 0.00000  0.61758  0.50000  Biso   1.000  Zn
  Zn4      1.0000 0.00000  0.38242  0.50000  Biso   1.000  Zn
  Si1      1.0000 0.50000  0.50000  0.75000  Biso   1.000  Si
  Si2      1.0000 0.50000  0.50000  0.25000  Biso   1.000  Si
  H1       1.0000 0.65910  0.63360  0.80440  Biso   1.000  H
  H2       1.0000 0.65760  0.76450  0.87140  Biso   1.000  H
  H3       1.0000 0.34090  0.36640  0.80440  Biso   1.000  H
  H4       1.0000 0.34240  0.23550  0.87140  Biso   1.000  H
  H5       1.0000 0.36640  0.65910  0.30440  Biso   1.000  H
  H6       1.0000 0.23550  0.65760  0.37140  Biso   1.000  H
  H7       1.0000 0.63360  0.34090  0.30440  Biso   1.000  H
  H8       1.0000 0.76450  0.34240  0.37140  Biso   1.000  H
  H9       1.0000 0.34090  0.63360  0.19560  Biso   1.000  H
  H10      1.0000 0.34240  0.76450  0.12860  Biso   1.000  H
  H11      1.0000 0.65910  0.36640  0.19560  Biso   1.000  H
  H12      1.0000 0.65760  0.23550  0.12860  Biso   1.000  H
  H13      1.0000 0.63360  0.65910  0.69560  Biso   1.000  H
  H14      1.0000 0.76450  0.65760  0.62860  Biso   1.000  H
  H15      1.0000 0.36640  0.34090  0.69560  Biso   1.000  H
  H16      1.0000 0.23550  0.34240  0.62860  Biso   1.000  H
  H17      1.0000 0.34090  0.36640  0.19560  Biso   1.000  H
  H18      1.0000 0.34240  0.23550  0.12860  Biso   1.000  H
  H19      1.0000 0.65910  0.63360  0.19560  Biso   1.000  H
  H20      1.0000 0.65760  0.76450  0.12860  Biso   1.000  H
  H21      1.0000 0.63360  0.34090  0.69560  Biso   1.000  H
  H22      1.0000 0.76450  0.34240  0.62860  Biso   1.000  H
  H23      1.0000 0.36640  0.65910  0.69560  Biso   1.000  H
  H24      1.0000 0.23550  0.65760  0.62860  Biso   1.000  H
  H25      1.0000 0.65910  0.36640  0.80440  Biso   1.000  H
  H26      1.0000 0.65760  0.23550  0.87140  Biso   1.000  H
  H27      1.0000 0.34090  0.63360  0.80440  Biso   1.000  H
  H28      1.0000 0.34240  0.76450  0.87140  Biso   1.000  H
  H29      1.0000 0.36640  0.34090  0.30440  Biso   1.000  H
  H30      1.0000 0.23550  0.34240  0.37140  Biso   1.000  H
  H31      1.0000 0.63360  0.65910  0.30440  Biso   1.000  H
  H32      1.0000 0.76450  0.65760  0.37140  Biso   1.000  H
  C1       1.0000 0.59369  0.65927  0.81807  Biso   1.000  C
  C2       1.0000 0.59277  0.73692  0.85812  Biso   1.000  C
  C3       1.0000 0.40631  0.34073  0.81807  Biso   1.000  C
  C4       1.0000 0.40723  0.26308  0.85812  Biso   1.000  C
  C5       1.0000 0.34073  0.59369  0.31807  Biso   1.000  C
  C6       1.0000 0.26308  0.59277  0.35812  Biso   1.000  C
  C7       1.0000 0.65927  0.40631  0.31807  Biso   1.000  C
  C8       1.0000 0.73692  0.40723  0.35812  Biso   1.000  C
  C9       1.0000 0.40631  0.65927  0.18193  Biso   1.000  C
  C10      1.0000 0.40723  0.73692  0.14188  Biso   1.000  C
  C11      1.0000 0.59369  0.34073  0.18193  Biso   1.000  C
  C12      1.0000 0.59277  0.26308  0.14188  Biso   1.000  C
  C13      1.0000 0.65927  0.59369  0.68193  Biso   1.000  C
  C14      1.0000 0.73692  0.59277  0.64188  Biso   1.000  C
  C15      1.0000 0.34073  0.40631  0.68193  Biso   1.000  C
  C16      1.0000 0.26308  0.40723  0.64188  Biso   1.000  C
  C17      1.0000 0.40631  0.34073  0.18193  Biso   1.000  C
  C18      1.0000 0.40723  0.26308  0.14188  Biso   1.000  C
  C19      1.0000 0.59369  0.65927  0.18193  Biso   1.000  C
  C20      1.0000 0.59277  0.73692  0.14188  Biso   1.000  C
  C21      1.0000 0.65927  0.40631  0.68193  Biso   1.000  C
  C22      1.0000 0.73692  0.40723  0.64188  Biso   1.000  C
  C23      1.0000 0.34073  0.59369  0.68193  Biso   1.000  C
  C24      1.0000 0.26308  0.59277  0.64188  Biso   1.000  C
  C25      1.0000 0.59369  0.34073  0.81807  Biso   1.000  C
  C26      1.0000 0.59277  0.26308  0.85812  Biso   1.000  C
  C27      1.0000 0.40631  0.65927  0.81807  Biso   1.000  C
  C28      1.0000 0.40723  0.73692  0.85812  Biso   1.000  C
  C29      1.0000 0.34073  0.40631  0.31807  Biso   1.000  C
  C30      1.0000 0.26308  0.40723  0.35812  Biso   1.000  C
  C31      1.0000 0.65927  0.59369  0.31807  Biso   1.000  C
  C32      1.0000 0.73692  0.59277  0.35812  Biso   1.000  C
  C33      1.0000 0.50000  0.61743  0.79711  Biso   1.000  C
  C34      1.0000 0.50000  0.77550  0.87939  Biso   1.000  C
  C35      1.0000 0.50000  0.85880  0.92364  Biso   1.000  C
  C36      1.0000 0.50000  0.38257  0.79711  Biso   1.000  C
  C37      1.0000 0.50000  0.22450  0.87939  Biso   1.000  C
  C38      1.0000 0.50000  0.14120  0.92364  Biso   1.000  C
  C39      1.0000 0.38257  0.50000  0.29711  Biso   1.000  C
  C40      1.0000 0.22450  0.50000  0.37939  Biso   1.000  C
  C41      1.0000 0.14120  0.50000  0.42364  Biso   1.000  C
  C42      1.0000 0.61743  0.50000  0.29711  Biso   1.000  C
  C43      1.0000 0.77550  0.50000  0.37939  Biso   1.000  C
  C44      1.0000 0.85880  0.50000  0.42364  Biso   1.000  C
  C45      1.0000 0.50000  0.61743  0.20289  Biso   1.000  C
  C46      1.0000 0.50000  0.77550  0.12061  Biso   1.000  C
  C47      1.0000 0.50000  0.85880  0.07636  Biso   1.000  C
  C48      1.0000 0.50000  0.38257  0.20289  Biso   1.000  C
  C49      1.0000 0.50000  0.22450  0.12061  Biso   1.000  C
  C50      1.0000 0.50000  0.14120  0.07636  Biso   1.000  C
  C51      1.0000 0.61743  0.50000  0.70289  Biso   1.000  C
  C52      1.0000 0.77550  0.50000  0.62061  Biso   1.000  C
  C53      1.0000 0.85880  0.50000  0.57636  Biso   1.000  C
  C54      1.0000 0.38257  0.50000  0.70289  Biso   1.000  C
  C55      1.0000 0.22450  0.50000  0.62061  Biso   1.000  C
  C56      1.0000 0.14120  0.50000  0.57636  Biso   1.000  C
  O1       1.0000 0.58849  0.88956  0.94140  Biso   1.000  O
  O2       1.0000 0.41151  0.11044  0.94140  Biso   1.000  O
  O3       1.0000 0.11044  0.58849  0.44140  Biso   1.000  O
  O4       1.0000 0.88956  0.41151  0.44140  Biso   1.000  O
  O5       1.0000 0.41151  0.88956  0.05860  Biso   1.000  O
  O6       1.0000 0.58849  0.11044  0.05860  Biso   1.000  O
  O7       1.0000 0.88956  0.58849  0.55860  Biso   1.000  O
  O8       1.0000 0.11044  0.41151  0.55860  Biso   1.000  O
  O9       1.0000 0.41151  0.11044  0.05860  Biso   1.000  O
  O10      1.0000 0.58849  0.88956  0.05860  Biso   1.000  O
  O11      1.0000 0.88956  0.41151  0.55860  Biso   1.000  O
  O12      1.0000 0.11044  0.58849  0.55860  Biso   1.000  O
  O13      1.0000 0.58849  0.11044  0.94140  Biso   1.000  O
  O14      1.0000 0.41151  0.88956  0.94140  Biso   1.000  O
  O15      1.0000 0.11044  0.41151  0.44140  Biso   1.000  O
  O16      1.0000 0.88956  0.58849  0.44140  Biso   1.000  O
  Zn5      1.0000 0.86573  0.47222  0.88172  Biso   1.000  Zn
  Zn6      1.0000 0.10089  0.47222  0.88172  Biso   1.000  Zn
  Zn7      1.0000 0.48331  0.08980  0.38172  Biso   1.000  Zn
  Zn8      1.0000 0.48331  0.85464  0.38172  Biso   1.000  Zn
  Si3      1.0000 0.98331  0.97222  0.13172  Biso   1.000  Si
  Si4      1.0000 0.98331  0.97222  0.63172  Biso   1.000  Si
  H33      1.0000 0.82421  0.10582  0.07732  Biso   1.000  H
  H34      1.0000 0.82571  0.23672  0.01032  Biso   1.000  H
  H35      1.0000 0.14241  0.83862  0.07732  Biso   1.000  H
  H36      1.0000 0.14091  0.70772  0.01032  Biso   1.000  H
  H37      1.0000 0.11691  0.13132  0.57732  Biso   1.000  H
  H38      1.0000 0.24781  0.12982  0.51032  Biso   1.000  H
  H39      1.0000 0.84971  0.81312  0.57732  Biso   1.000  H
  H40      1.0000 0.71881  0.81462  0.51032  Biso   1.000  H
  H41      1.0000 0.14241  0.10582  0.68612  Biso   1.000  H
  H42      1.0000 0.14091  0.23672  0.75312  Biso   1.000  H
  H43      1.0000 0.82421  0.83862  0.68612  Biso   1.000  H
  H44      1.0000 0.82571  0.70772  0.75312  Biso   1.000  H
  H45      1.0000 0.84971  0.13132  0.18612  Biso   1.000  H
  H46      1.0000 0.71881  0.12982  0.25312  Biso   1.000  H
  H47      1.0000 0.11691  0.81312  0.18612  Biso   1.000  H
  H48      1.0000 0.24781  0.81462  0.25312  Biso   1.000  H
  H49      1.0000 0.14241  0.83862  0.68612  Biso   1.000  H
  H50      1.0000 0.14091  0.70772  0.75312  Biso   1.000  H
  H51      1.0000 0.82421  0.10582  0.68612  Biso   1.000  H
  H52      1.0000 0.82571  0.23672  0.75312  Biso   1.000  H
  H53      1.0000 0.84971  0.81312  0.18612  Biso   1.000  H
  H54      1.0000 0.71881  0.81462  0.25312  Biso   1.000  H
  H55      1.0000 0.11691  0.13132  0.18612  Biso   1.000  H
  H56      1.0000 0.24781  0.12982  0.25312  Biso   1.000  H
  H57      1.0000 0.82421  0.83862  0.07732  Biso   1.000  H
  H58      1.0000 0.82571  0.70772  0.01032  Biso   1.000  H
  H59      1.0000 0.14241  0.10582  0.07732  Biso   1.000  H
  H60      1.0000 0.14091  0.23672  0.01032  Biso   1.000  H
  H61      1.0000 0.11691  0.81312  0.57732  Biso   1.000  H
  H62      1.0000 0.24781  0.81462  0.51032  Biso   1.000  H
  H63      1.0000 0.84971  0.13132  0.57732  Biso   1.000  H
  H64      1.0000 0.71881  0.12982  0.51032  Biso   1.000  H
  C57      1.0000 0.88962  0.13149  0.06365  Biso   1.000  C
  C58      1.0000 0.89054  0.20914  0.02360  Biso   1.000  C
  C59      1.0000 0.07700  0.81295  0.06365  Biso   1.000  C
  C60      1.0000 0.07608  0.73530  0.02360  Biso   1.000  C
  C61      1.0000 0.14258  0.06591  0.56365  Biso   1.000  C
  C62      1.0000 0.22023  0.06499  0.52360  Biso   1.000  C
  C63      1.0000 0.82404  0.87853  0.56365  Biso   1.000  C
  C64      1.0000 0.74639  0.87945  0.52360  Biso   1.000  C
  C65      1.0000 0.07700  0.13149  0.69979  Biso   1.000  C
  C66      1.0000 0.07608  0.20914  0.73984  Biso   1.000  C
  C67      1.0000 0.88962  0.81295  0.69979  Biso   1.000  C
  C68      1.0000 0.89054  0.73530  0.73984  Biso   1.000  C
  C69      1.0000 0.82404  0.06591  0.19979  Biso   1.000  C
  C70      1.0000 0.74639  0.06499  0.23984  Biso   1.000  C
  C71      1.0000 0.14258  0.87853  0.19979  Biso   1.000  C
  C72      1.0000 0.22023  0.87945  0.23984  Biso   1.000  C
  C73      1.0000 0.07700  0.81295  0.69979  Biso   1.000  C
  C74      1.0000 0.07608  0.73530  0.73984  Biso   1.000  C
  C75      1.0000 0.88962  0.13149  0.69979  Biso   1.000  C
  C76      1.0000 0.89054  0.20914  0.73984  Biso   1.000  C
  C77      1.0000 0.82404  0.87853  0.19979  Biso   1.000  C
  C78      1.0000 0.74639  0.87945  0.23984  Biso   1.000  C
  C79      1.0000 0.14258  0.06591  0.19979  Biso   1.000  C
  C80      1.0000 0.22023  0.06499  0.23984  Biso   1.000  C
  C81      1.0000 0.88962  0.81295  0.06365  Biso   1.000  C
  C82      1.0000 0.89054  0.73530  0.02360  Biso   1.000  C
  C83      1.0000 0.07700  0.13149  0.06365  Biso   1.000  C
  C84      1.0000 0.07608  0.20914  0.02360  Biso   1.000  C
  C85      1.0000 0.14258  0.87853  0.56365  Biso   1.000  C
  C86      1.0000 0.22023  0.87945  0.52360  Biso   1.000  C
  C87      1.0000 0.82404  0.06591  0.56365  Biso   1.000  C
  C88      1.0000 0.74639  0.06499  0.52360  Biso   1.000  C
  C89      1.0000 0.98331  0.08965  0.08461  Biso   1.000  C
  C90      1.0000 0.98331  0.24772  0.00233  Biso   1.000  C
  C91      1.0000 0.98331  0.33102  0.95808  Biso   1.000  C
  C92      1.0000 0.98331  0.85479  0.08461  Biso   1.000  C
  C93      1.0000 0.98331  0.69672  0.00233  Biso   1.000  C
  C94      1.0000 0.98331  0.61342  0.95808  Biso   1.000  C
  C95      1.0000 0.10074  0.97222  0.58461  Biso   1.000  C
  C96      1.0000 0.25881  0.97222  0.50233  Biso   1.000  C
  C97      1.0000 0.34211  0.97222  0.45808  Biso   1.000  C
  C98      1.0000 0.86588  0.97222  0.58461  Biso   1.000  C
  C99      1.0000 0.70781  0.97222  0.50233  Biso   1.000  C
  C100     1.0000 0.62451  0.97222  0.45808  Biso   1.000  C
  C101     1.0000 0.98331  0.08965  0.67883  Biso   1.000  C
  C102     1.0000 0.98331  0.24772  0.76111  Biso   1.000  C
  C103     1.0000 0.98331  0.33102  0.80536  Biso   1.000  C
  C104     1.0000 0.98331  0.85479  0.67883  Biso   1.000  C
  C105     1.0000 0.98331  0.69672  0.76111  Biso   1.000  C
  C106     1.0000 0.98331  0.61342  0.80536  Biso   1.000  C
  C107     1.0000 0.86588  0.97222  0.17883  Biso   1.000  C
  C108     1.0000 0.70781  0.97222  0.26111  Biso   1.000  C
  C109     1.0000 0.62451  0.97222  0.30536  Biso   1.000  C
  C110     1.0000 0.10074  0.97222  0.17883  Biso   1.000  C
  C111     1.0000 0.25881  0.97222  0.26111  Biso   1.000  C
  C112     1.0000 0.34211  0.97222  0.30536  Biso   1.000  C
  O17      1.0000 0.89482  0.36178  0.94032  Biso   1.000  O
  O18      1.0000 0.07180  0.58266  0.94032  Biso   1.000  O
  O19      1.0000 0.37287  0.06071  0.44032  Biso   1.000  O
  O20      1.0000 0.59375  0.88373  0.44032  Biso   1.000  O
  O21      1.0000 0.07180  0.36178  0.82312  Biso   1.000  O
  O22      1.0000 0.89482  0.58266  0.82312  Biso   1.000  O
  O23      1.0000 0.59375  0.06071  0.32312  Biso   1.000  O
  O24      1.0000 0.37287  0.88373  0.32312  Biso   1.000  O
  O25      1.0000 0.07180  0.58266  0.82312  Biso   1.000  O
  O26      1.0000 0.89482  0.36178  0.82312  Biso   1.000  O
  O27      1.0000 0.59375  0.88373  0.32312  Biso   1.000  O
  O28      1.0000 0.37287  0.06071  0.32312  Biso   1.000  O
  O29      1.0000 0.89482  0.58266  0.94032  Biso   1.000  O
  O30      1.0000 0.07180  0.36178  0.94032  Biso   1.000  O
  O31      1.0000 0.37287  0.88373  0.44032  Biso   1.000  O
