data_image0
_cell_length_a       18.2016
_cell_length_b       18.2016
_cell_length_c       18.2016
_cell_angle_alpha    60
_cell_angle_beta     60
_cell_angle_gamma    60

_symmetry_space_group_name_H-M    "P 1"
_symmetry_int_tables_number       1

loop_
  _symmetry_equiv_pos_as_xyz
  'x, y, z'

loop_
  _atom_site_label
  _atom_site_occupancy
  _atom_site_fract_x
  _atom_site_fract_y
  _atom_site_fract_z
  _atom_site_thermal_displace_type
  _atom_site_B_iso_or_equiv
  _atom_site_type_symbol
  C1       1.0000 0.54338  0.36986  0.54338  Biso   1.000  C
  C2       1.0000 0.36986  0.54338  0.54338  Biso   1.000  C
  C3       1.0000 0.54338  0.54338  0.54338  Biso   1.000  C
  C4       1.0000 0.54338  0.54338  0.36986  Biso   1.000  C
  C5       1.0000 0.13029  0.95657  0.95657  Biso   1.000  C
  C6       1.0000 0.95657  0.13029  0.95657  Biso   1.000  C
  C7       1.0000 0.95657  0.95657  0.13029  Biso   1.000  C
  C8       1.0000 0.95657  0.95657  0.95657  Biso   1.000  C
  C9       1.0000 0.31480  0.09680  0.79420  Biso   1.000  C
  C10      1.0000 0.09680  0.31480  0.79420  Biso   1.000  C
  C11      1.0000 0.79420  0.79420  0.31480  Biso   1.000  C
  C12      1.0000 0.79420  0.79420  0.09680  Biso   1.000  C
  C13      1.0000 0.31480  0.79420  0.79420  Biso   1.000  C
  C14      1.0000 0.09680  0.79420  0.79420  Biso   1.000  C
  C15      1.0000 0.79420  0.31480  0.09680  Biso   1.000  C
  C16      1.0000 0.79420  0.09680  0.31480  Biso   1.000  C
  C17      1.0000 0.31480  0.79420  0.09680  Biso   1.000  C
  C18      1.0000 0.09680  0.79420  0.31480  Biso   1.000  C
  C19      1.0000 0.79420  0.09680  0.79420  Biso   1.000  C
  C20      1.0000 0.79420  0.31480  0.79420  Biso   1.000  C
  C21      1.0000 0.33050  0.21250  0.72850  Biso   1.000  C
  C22      1.0000 0.28810  0.15890  0.77650  Biso   1.000  C
  C23      1.0000 0.21250  0.33050  0.72850  Biso   1.000  C
  C24      1.0000 0.15890  0.28810  0.77650  Biso   1.000  C
  C25      1.0000 0.72850  0.72850  0.33050  Biso   1.000  C
  C26      1.0000 0.77650  0.77650  0.28810  Biso   1.000  C
  C27      1.0000 0.72850  0.72850  0.21250  Biso   1.000  C
  C28      1.0000 0.77650  0.77650  0.15890  Biso   1.000  C
  C29      1.0000 0.33050  0.72850  0.72850  Biso   1.000  C
  C30      1.0000 0.28810  0.77650  0.77650  Biso   1.000  C
  C31      1.0000 0.21250  0.72850  0.72850  Biso   1.000  C
  C32      1.0000 0.15890  0.77650  0.77650  Biso   1.000  C
  C33      1.0000 0.72850  0.33050  0.21250  Biso   1.000  C
  C34      1.0000 0.77650  0.28810  0.15890  Biso   1.000  C
  C35      1.0000 0.72850  0.21250  0.33050  Biso   1.000  C
  C36      1.0000 0.77650  0.15890  0.28810  Biso   1.000  C
  C37      1.0000 0.33050  0.72850  0.21250  Biso   1.000  C
  C38      1.0000 0.28810  0.77650  0.15890  Biso   1.000  C
  C39      1.0000 0.21250  0.72850  0.33050  Biso   1.000  C
  C40      1.0000 0.15890  0.77650  0.28810  Biso   1.000  C
  C41      1.0000 0.72850  0.21250  0.72850  Biso   1.000  C
  C42      1.0000 0.77650  0.15890  0.77650  Biso   1.000  C
  C43      1.0000 0.72850  0.33050  0.72850  Biso   1.000  C
  C44      1.0000 0.77650  0.28810  0.77650  Biso   1.000  C
  C45      1.0000 0.30490  0.30490  0.69510  Biso   1.000  C
  C46      1.0000 0.20070  0.20070  0.79930  Biso   1.000  C
  C47      1.0000 0.13930  0.13930  0.86070  Biso   1.000  C
  C48      1.0000 0.36170  0.36170  0.63830  Biso   1.000  C
  C49      1.0000 0.69510  0.69510  0.30490  Biso   1.000  C
  C50      1.0000 0.79930  0.79930  0.20070  Biso   1.000  C
  C51      1.0000 0.86070  0.86070  0.13930  Biso   1.000  C
  C52      1.0000 0.63830  0.63830  0.36170  Biso   1.000  C
  C53      1.0000 0.30490  0.69510  0.69510  Biso   1.000  C
  C54      1.0000 0.20070  0.79930  0.79930  Biso   1.000  C
  C55      1.0000 0.13930  0.86070  0.86070  Biso   1.000  C
  C56      1.0000 0.36170  0.63830  0.63830  Biso   1.000  C
  C57      1.0000 0.69510  0.30490  0.30490  Biso   1.000  C
  C58      1.0000 0.79930  0.20070  0.20070  Biso   1.000  C
  C59      1.0000 0.86070  0.13930  0.13930  Biso   1.000  C
  C60      1.0000 0.63830  0.36170  0.36170  Biso   1.000  C
  C61      1.0000 0.30490  0.69510  0.30490  Biso   1.000  C
  C62      1.0000 0.20070  0.79930  0.20070  Biso   1.000  C
  C63      1.0000 0.13930  0.86070  0.13930  Biso   1.000  C
  C64      1.0000 0.36170  0.63830  0.36170  Biso   1.000  C
  C65      1.0000 0.69510  0.30490  0.69510  Biso   1.000  C
  C66      1.0000 0.79930  0.20070  0.79930  Biso   1.000  C
  C67      1.0000 0.86070  0.13930  0.86070  Biso   1.000  C
  C68      1.0000 0.63830  0.36170  0.63830  Biso   1.000  C
  C69      1.0000 0.17850  0.05170  0.88490  Biso   1.000  C
  C70      1.0000 0.44150  0.32470  0.61690  Biso   1.000  C
  C71      1.0000 0.05170  0.17850  0.88490  Biso   1.000  C
  C72      1.0000 0.32470  0.44150  0.61690  Biso   1.000  C
  C73      1.0000 0.88490  0.88490  0.17850  Biso   1.000  C
  C74      1.0000 0.61690  0.61690  0.44150  Biso   1.000  C
  C75      1.0000 0.88490  0.88490  0.05170  Biso   1.000  C
  C76      1.0000 0.61690  0.61690  0.32470  Biso   1.000  C
  C77      1.0000 0.17850  0.88490  0.88490  Biso   1.000  C
  C78      1.0000 0.44150  0.61690  0.61690  Biso   1.000  C
  C79      1.0000 0.05170  0.88490  0.88490  Biso   1.000  C
  C80      1.0000 0.32470  0.61690  0.61690  Biso   1.000  C
  C81      1.0000 0.88490  0.17850  0.05170  Biso   1.000  C
  C82      1.0000 0.61690  0.44150  0.32470  Biso   1.000  C
  C83      1.0000 0.88490  0.05170  0.17850  Biso   1.000  C
  C84      1.0000 0.61690  0.32470  0.44150  Biso   1.000  C
  C85      1.0000 0.17850  0.88490  0.05170  Biso   1.000  C
  C86      1.0000 0.44150  0.61690  0.32470  Biso   1.000  C
  C87      1.0000 0.05170  0.88490  0.17850  Biso   1.000  C
  C88      1.0000 0.32470  0.61690  0.44150  Biso   1.000  C
  C89      1.0000 0.88490  0.05170  0.88490  Biso   1.000  C
  C90      1.0000 0.61690  0.32470  0.61690  Biso   1.000  C
  C91      1.0000 0.88490  0.17850  0.88490  Biso   1.000  C
  C92      1.0000 0.61690  0.44150  0.61690  Biso   1.000  C
  C93      1.0000 0.00000  0.00000  0.00000  Biso   1.000  C
  C94      1.0000 0.50000  0.50000  0.50000  Biso   1.000  C
  O1       1.0000 0.77559  0.89519  0.74017  Biso   1.000  O
  O2       1.0000 0.77559  0.72167  0.74017  Biso   1.000  O
  O3       1.0000 0.94911  0.72167  0.74017  Biso   1.000  O
  O4       1.0000 0.77559  0.72167  0.91369  Biso   1.000  O
  O5       1.0000 0.36240  0.30848  0.32698  Biso   1.000  O
  O6       1.0000 0.36240  0.13476  0.32698  Biso   1.000  O
  O7       1.0000 0.36240  0.30848  0.15326  Biso   1.000  O
  O8       1.0000 0.18868  0.30848  0.32698  Biso   1.000  O
  O9       1.0000 0.52477  0.16825  0.48935  Biso   1.000  O
  O10      1.0000 0.52477  0.95025  0.48935  Biso   1.000  O
  O11      1.0000 0.22217  0.47085  0.96875  Biso   1.000  O
  O12      1.0000 0.00417  0.47085  0.18675  Biso   1.000  O
  O13      1.0000 0.22217  0.47085  0.48935  Biso   1.000  O
  O14      1.0000 0.00417  0.47085  0.48935  Biso   1.000  O
  O15      1.0000 0.52477  0.95025  0.18675  Biso   1.000  O
  O16      1.0000 0.52477  0.16825  0.96875  Biso   1.000  O
  O17      1.0000 0.52477  0.47085  0.18675  Biso   1.000  O
  O18      1.0000 0.52477  0.47085  0.96875  Biso   1.000  O
  O19      1.0000 0.00417  0.16825  0.48935  Biso   1.000  O
  O20      1.0000 0.22217  0.95025  0.48935  Biso   1.000  O
  O21      1.0000 0.59047  0.05255  0.55505  Biso   1.000  O
  O22      1.0000 0.54247  0.10615  0.50705  Biso   1.000  O
  O23      1.0000 0.59047  0.93455  0.55505  Biso   1.000  O
  O24      1.0000 0.54247  0.97695  0.50705  Biso   1.000  O
  O25      1.0000 0.10647  0.53655  0.95305  Biso   1.000  O
  O26      1.0000 0.16007  0.48855  0.99545  Biso   1.000  O
  O27      1.0000 0.98847  0.53655  0.07105  Biso   1.000  O
  O28      1.0000 0.03087  0.48855  0.12465  Biso   1.000  O
  O29      1.0000 0.10647  0.53655  0.55505  Biso   1.000  O
  O30      1.0000 0.16007  0.48855  0.50705  Biso   1.000  O
  O31      1.0000 0.98847  0.53655  0.55505  Biso   1.000  O
  O32      1.0000 0.03087  0.48855  0.50705  Biso   1.000  O
  O33      1.0000 0.59047  0.93455  0.07105  Biso   1.000  O
  O34      1.0000 0.54247  0.97695  0.12465  Biso   1.000  O
  O35      1.0000 0.59047  0.05255  0.95305  Biso   1.000  O
  O36      1.0000 0.54247  0.10615  0.99545  Biso   1.000  O
  O37      1.0000 0.59047  0.53655  0.07105  Biso   1.000  O
  O38      1.0000 0.54247  0.48855  0.12465  Biso   1.000  O
  O39      1.0000 0.59047  0.53655  0.95305  Biso   1.000  O
  O40      1.0000 0.54247  0.48855  0.99545  Biso   1.000  O
  O41      1.0000 0.98847  0.05255  0.55505  Biso   1.000  O
  O42      1.0000 0.03087  0.10615  0.50705  Biso   1.000  O
  O43      1.0000 0.10647  0.93455  0.55505  Biso   1.000  O
  O44      1.0000 0.16007  0.97695  0.50705  Biso   1.000  O
  O45      1.0000 0.62387  0.96015  0.58845  Biso   1.000  O
  O46      1.0000 0.51967  0.06435  0.48425  Biso   1.000  O
  O47      1.0000 0.45827  0.12575  0.42285  Biso   1.000  O
  O48      1.0000 0.68067  0.90335  0.64525  Biso   1.000  O
  O49      1.0000 0.01407  0.56995  0.97865  Biso   1.000  O
  O50      1.0000 0.11827  0.46575  0.08285  Biso   1.000  O
  O51      1.0000 0.17967  0.40435  0.14425  Biso   1.000  O
  O52      1.0000 0.95727  0.62675  0.92185  Biso   1.000  O
  O53      1.0000 0.01407  0.56995  0.58845  Biso   1.000  O
  O54      1.0000 0.11827  0.46575  0.48425  Biso   1.000  O
  O55      1.0000 0.17967  0.40435  0.42285  Biso   1.000  O
  O56      1.0000 0.95727  0.62675  0.64525  Biso   1.000  O
  O57      1.0000 0.62387  0.96015  0.97865  Biso   1.000  O
  O58      1.0000 0.51967  0.06435  0.08285  Biso   1.000  O
  O59      1.0000 0.45827  0.12575  0.14425  Biso   1.000  O
  O60      1.0000 0.68067  0.90335  0.92185  Biso   1.000  O
  O61      1.0000 0.62387  0.56995  0.97865  Biso   1.000  O
  O62      1.0000 0.51967  0.46575  0.08285  Biso   1.000  O
  O63      1.0000 0.45827  0.40435  0.14425  Biso   1.000  O
  O64      1.0000 0.68067  0.62675  0.92185  Biso   1.000  O
  O65      1.0000 0.01407  0.96015  0.58845  Biso   1.000  O
  O66      1.0000 0.11827  0.06435  0.48425  Biso   1.000  O
  O67      1.0000 0.17967  0.12575  0.42285  Biso   1.000  O
  O68      1.0000 0.95727  0.90335  0.64525  Biso   1.000  O
  O69      1.0000 0.43407  0.21335  0.39865  Biso   1.000  O
  O70      1.0000 0.70207  0.94035  0.66665  Biso   1.000  O
  O71      1.0000 0.43407  0.08655  0.39865  Biso   1.000  O
  O72      1.0000 0.70207  0.82355  0.66665  Biso   1.000  O
  O73      1.0000 0.26727  0.38015  0.10505  Biso   1.000  O
  O74      1.0000 0.99427  0.64815  0.84205  Biso   1.000  O
  O75      1.0000 0.14047  0.38015  0.23185  Biso   1.000  O
  O76      1.0000 0.87747  0.64815  0.95885  Biso   1.000  O
  O77      1.0000 0.26727  0.38015  0.39865  Biso   1.000  O
  O78      1.0000 0.99427  0.64815  0.66665  Biso   1.000  O
  O79      1.0000 0.14047  0.38015  0.39865  Biso   1.000  O
  O80      1.0000 0.87747  0.64815  0.66665  Biso   1.000  O
  O81      1.0000 0.43407  0.08655  0.23185  Biso   1.000  O
  O82      1.0000 0.70207  0.82355  0.95885  Biso   1.000  O
  O83      1.0000 0.43407  0.21335  0.10505  Biso   1.000  O
  O84      1.0000 0.70207  0.94035  0.84205  Biso   1.000  O
  O85      1.0000 0.43407  0.38015  0.23185  Biso   1.000  O
  O86      1.0000 0.70207  0.64815  0.95885  Biso   1.000  O
  O87      1.0000 0.43407  0.38015  0.10505  Biso   1.000  O
  O88      1.0000 0.70207  0.64815  0.84205  Biso   1.000  O
  O89      1.0000 0.14047  0.21335  0.39865  Biso   1.000  O
  O90      1.0000 0.87747  0.94035  0.66665  Biso   1.000  O
  O91      1.0000 0.26727  0.08655  0.39865  Biso   1.000  O
  O92      1.0000 0.99427  0.82355  0.66665  Biso   1.000  O
  O93      1.0000 0.31897  0.26505  0.28355  Biso   1.000  O
