data_image0
_cell_length_a       18.126
_cell_length_b       18.126
_cell_length_c       18.126
_cell_angle_alpha    60
_cell_angle_beta     60
_cell_angle_gamma    60

_symmetry_space_group_name_H-M    "P 1"
_symmetry_int_tables_number       1

loop_
  _symmetry_equiv_pos_as_xyz
  'x, y, z'

loop_
  _atom_site_label
  _atom_site_occupancy
  _atom_site_fract_x
  _atom_site_fract_y
  _atom_site_fract_z
  _atom_site_thermal_displace_type
  _atom_site_B_iso_or_equiv
  _atom_site_type_symbol
  C1       1.0000 0.04333  0.04333  0.04333  Biso   1.000  C
  C2       1.0000 0.04333  0.04333  0.87001  Biso   1.000  C
  C3       1.0000 0.04333  0.87001  0.04333  Biso   1.000  C
  C4       1.0000 0.87001  0.04333  0.04333  Biso   1.000  C
  C5       1.0000 0.45668  0.45668  0.62996  Biso   1.000  C
  C6       1.0000 0.45668  0.45668  0.45668  Biso   1.000  C
  C7       1.0000 0.62996  0.45668  0.45668  Biso   1.000  C
  C8       1.0000 0.45668  0.62996  0.45668  Biso   1.000  C
  C9       1.0000 0.29230  0.29230  0.81450  Biso   1.000  C
  C10      1.0000 0.29230  0.29230  0.60090  Biso   1.000  C
  C11      1.0000 0.81450  0.60090  0.29230  Biso   1.000  C
  C12      1.0000 0.60090  0.81450  0.29230  Biso   1.000  C
  C13      1.0000 0.29230  0.81450  0.60090  Biso   1.000  C
  C14      1.0000 0.29230  0.60090  0.81450  Biso   1.000  C
  C15      1.0000 0.81450  0.29230  0.29230  Biso   1.000  C
  C16      1.0000 0.60090  0.29230  0.29230  Biso   1.000  C
  C17      1.0000 0.29230  0.60090  0.29230  Biso   1.000  C
  C18      1.0000 0.29230  0.81450  0.29230  Biso   1.000  C
  C19      1.0000 0.81450  0.29230  0.60090  Biso   1.000  C
  C20      1.0000 0.60090  0.29230  0.81450  Biso   1.000  C
  C21      1.0000 0.22500  0.22500  0.83840  Biso   1.000  C
  C22      1.0000 0.27560  0.27560  0.78560  Biso   1.000  C
  C23      1.0000 0.22500  0.22500  0.71160  Biso   1.000  C
  C24      1.0000 0.27560  0.27560  0.66320  Biso   1.000  C
  C25      1.0000 0.83840  0.71160  0.22500  Biso   1.000  C
  C26      1.0000 0.78560  0.66320  0.27560  Biso   1.000  C
  C27      1.0000 0.71160  0.83840  0.22500  Biso   1.000  C
  C28      1.0000 0.66320  0.78560  0.27560  Biso   1.000  C
  C29      1.0000 0.22500  0.83840  0.71160  Biso   1.000  C
  C30      1.0000 0.27560  0.78560  0.66320  Biso   1.000  C
  C31      1.0000 0.22500  0.71160  0.83840  Biso   1.000  C
  C32      1.0000 0.27560  0.66320  0.78560  Biso   1.000  C
  C33      1.0000 0.83840  0.22500  0.22500  Biso   1.000  C
  C34      1.0000 0.78560  0.27560  0.27560  Biso   1.000  C
  C35      1.0000 0.71160  0.22500  0.22500  Biso   1.000  C
  C36      1.0000 0.66320  0.27560  0.27560  Biso   1.000  C
  C37      1.0000 0.22500  0.71160  0.22500  Biso   1.000  C
  C38      1.0000 0.27560  0.66320  0.27560  Biso   1.000  C
  C39      1.0000 0.22500  0.83840  0.22500  Biso   1.000  C
  C40      1.0000 0.27560  0.78560  0.27560  Biso   1.000  C
  C41      1.0000 0.83840  0.22500  0.71160  Biso   1.000  C
  C42      1.0000 0.78560  0.27560  0.66320  Biso   1.000  C
  C43      1.0000 0.71160  0.22500  0.83840  Biso   1.000  C
  C44      1.0000 0.66320  0.27560  0.78560  Biso   1.000  C
  C45      1.0000 0.13650  0.13650  0.86350  Biso   1.000  C
  C46      1.0000 0.20050  0.20050  0.79950  Biso   1.000  C
  C47      1.0000 0.35840  0.35840  0.64160  Biso   1.000  C
  C48      1.0000 0.30790  0.30790  0.69210  Biso   1.000  C
  C49      1.0000 0.86350  0.86350  0.13650  Biso   1.000  C
  C50      1.0000 0.79950  0.79950  0.20050  Biso   1.000  C
  C51      1.0000 0.64160  0.64160  0.35840  Biso   1.000  C
  C52      1.0000 0.69210  0.69210  0.30790  Biso   1.000  C
  C53      1.0000 0.13650  0.86350  0.86350  Biso   1.000  C
  C54      1.0000 0.20050  0.79950  0.79950  Biso   1.000  C
  C55      1.0000 0.35840  0.64160  0.64160  Biso   1.000  C
  C56      1.0000 0.30790  0.69210  0.69210  Biso   1.000  C
  C57      1.0000 0.86350  0.13650  0.13650  Biso   1.000  C
  C58      1.0000 0.79950  0.20050  0.20050  Biso   1.000  C
  C59      1.0000 0.64160  0.35840  0.35840  Biso   1.000  C
  C60      1.0000 0.69210  0.30790  0.30790  Biso   1.000  C
  C61      1.0000 0.13650  0.86350  0.13650  Biso   1.000  C
  C62      1.0000 0.20050  0.79950  0.20050  Biso   1.000  C
  C63      1.0000 0.35840  0.64160  0.35840  Biso   1.000  C
  C64      1.0000 0.30790  0.69210  0.30790  Biso   1.000  C
  C65      1.0000 0.86350  0.13650  0.86350  Biso   1.000  C
  C66      1.0000 0.79950  0.20050  0.79950  Biso   1.000  C
  C67      1.0000 0.64160  0.35840  0.64160  Biso   1.000  C
  C68      1.0000 0.69210  0.30790  0.69210  Biso   1.000  C
  C69      1.0000 0.50000  0.50000  0.50000  Biso   1.000  C
  C70      1.0000 0.00000  0.00000  0.00000  Biso   1.000  C
  C71      1.0000 0.11450  0.11450  0.94630  Biso   1.000  C
  C72      1.0000 0.38330  0.38330  0.67710  Biso   1.000  C
  C73      1.0000 0.11450  0.11450  0.82470  Biso   1.000  C
  C74      1.0000 0.38330  0.38330  0.55630  Biso   1.000  C
  C75      1.0000 0.94630  0.82470  0.11450  Biso   1.000  C
  C76      1.0000 0.67710  0.55630  0.38330  Biso   1.000  C
  C77      1.0000 0.82470  0.94630  0.11450  Biso   1.000  C
  C78      1.0000 0.55630  0.67710  0.38330  Biso   1.000  C
  C79      1.0000 0.11450  0.94630  0.82470  Biso   1.000  C
  C80      1.0000 0.38330  0.67710  0.55630  Biso   1.000  C
  C81      1.0000 0.11450  0.82470  0.94630  Biso   1.000  C
  C82      1.0000 0.38330  0.55630  0.67710  Biso   1.000  C
  C83      1.0000 0.94630  0.11450  0.11450  Biso   1.000  C
  C84      1.0000 0.67710  0.38330  0.38330  Biso   1.000  C
  C85      1.0000 0.82470  0.11450  0.11450  Biso   1.000  C
  C86      1.0000 0.55630  0.38330  0.38330  Biso   1.000  C
  C87      1.0000 0.11450  0.82470  0.11450  Biso   1.000  C
  C88      1.0000 0.38330  0.55630  0.38330  Biso   1.000  C
  C89      1.0000 0.11450  0.94630  0.11450  Biso   1.000  C
  C90      1.0000 0.38330  0.67710  0.38330  Biso   1.000  C
  C91      1.0000 0.94630  0.11450  0.82470  Biso   1.000  C
  C92      1.0000 0.67710  0.38330  0.55630  Biso   1.000  C
  C93      1.0000 0.82470  0.11450  0.94630  Biso   1.000  C
  C94      1.0000 0.55630  0.38330  0.67710  Biso   1.000  C
  O1       1.0000 0.24717  0.22843  0.27027  Biso   1.000  O
  O2       1.0000 0.07385  0.22843  0.44359  Biso   1.000  O
  O3       1.0000 0.07385  0.40175  0.27027  Biso   1.000  O
  O4       1.0000 0.07385  0.22843  0.27027  Biso   1.000  O
  O5       1.0000 0.66050  0.81508  0.68364  Biso   1.000  O
  O6       1.0000 0.48722  0.81508  0.85692  Biso   1.000  O
  O7       1.0000 0.66050  0.81508  0.85692  Biso   1.000  O
  O8       1.0000 0.66050  0.64180  0.85692  Biso   1.000  O
  O9       1.0000 0.51628  0.97946  0.49910  Biso   1.000  O
  O10      1.0000 0.30268  0.97946  0.71270  Biso   1.000  O
  O11      1.0000 0.82488  0.67086  0.02130  Biso   1.000  O
  O12      1.0000 0.82488  0.45726  0.02130  Biso   1.000  O
  O13      1.0000 0.82488  0.45726  0.71270  Biso   1.000  O
  O14      1.0000 0.82488  0.67086  0.49910  Biso   1.000  O
  O15      1.0000 0.51628  0.97946  0.02130  Biso   1.000  O
  O16      1.0000 0.30268  0.97946  0.02130  Biso   1.000  O
  O17      1.0000 0.30268  0.67086  0.02130  Biso   1.000  O
  O18      1.0000 0.51628  0.45726  0.02130  Biso   1.000  O
  O19      1.0000 0.82488  0.97946  0.71270  Biso   1.000  O
  O20      1.0000 0.82488  0.97946  0.49910  Biso   1.000  O
  O21      1.0000 0.40558  0.04676  0.47520  Biso   1.000  O
  O22      1.0000 0.45398  0.99616  0.52800  Biso   1.000  O
  O23      1.0000 0.27878  0.04676  0.60200  Biso   1.000  O
  O24      1.0000 0.33158  0.99616  0.65040  Biso   1.000  O
  O25      1.0000 0.89218  0.56016  0.08860  Biso   1.000  O
  O26      1.0000 0.84158  0.60856  0.03800  Biso   1.000  O
  O27      1.0000 0.89218  0.43336  0.08860  Biso   1.000  O
  O28      1.0000 0.84158  0.48616  0.03800  Biso   1.000  O
  O29      1.0000 0.89218  0.43336  0.60200  Biso   1.000  O
  O30      1.0000 0.84158  0.48616  0.65040  Biso   1.000  O
  O31      1.0000 0.89218  0.56016  0.47520  Biso   1.000  O
  O32      1.0000 0.84158  0.60856  0.52800  Biso   1.000  O
  O33      1.0000 0.40558  0.04676  0.08860  Biso   1.000  O
  O34      1.0000 0.45398  0.99616  0.03800  Biso   1.000  O
  O35      1.0000 0.27878  0.04676  0.08860  Biso   1.000  O
  O36      1.0000 0.33158  0.99616  0.03800  Biso   1.000  O
  O37      1.0000 0.27878  0.56016  0.08860  Biso   1.000  O
  O38      1.0000 0.33158  0.60856  0.03800  Biso   1.000  O
  O39      1.0000 0.40558  0.43336  0.08860  Biso   1.000  O
  O40      1.0000 0.45398  0.48616  0.03800  Biso   1.000  O
  O41      1.0000 0.89218  0.04676  0.60200  Biso   1.000  O
  O42      1.0000 0.84158  0.99616  0.65040  Biso   1.000  O
  O43      1.0000 0.89218  0.04676  0.47520  Biso   1.000  O
  O44      1.0000 0.84158  0.99616  0.52800  Biso   1.000  O
  O45      1.0000 0.25368  0.13526  0.45010  Biso   1.000  O
  O46      1.0000 0.31768  0.07126  0.51410  Biso   1.000  O
  O47      1.0000 0.47558  0.91336  0.67200  Biso   1.000  O
  O48      1.0000 0.42508  0.96386  0.62150  Biso   1.000  O
  O49      1.0000 0.98068  0.40826  0.17710  Biso   1.000  O
  O50      1.0000 0.91668  0.47226  0.11310  Biso   1.000  O
  O51      1.0000 0.75878  0.63016  0.95520  Biso   1.000  O
  O52      1.0000 0.80928  0.57966  0.00570  Biso   1.000  O
  O53      1.0000 0.98068  0.40826  0.45010  Biso   1.000  O
  O54      1.0000 0.91668  0.47226  0.51410  Biso   1.000  O
  O55      1.0000 0.75878  0.63016  0.67200  Biso   1.000  O
  O56      1.0000 0.80928  0.57966  0.62150  Biso   1.000  O
  O57      1.0000 0.25368  0.13526  0.17710  Biso   1.000  O
  O58      1.0000 0.31768  0.07126  0.11310  Biso   1.000  O
  O59      1.0000 0.47558  0.91336  0.95520  Biso   1.000  O
  O60      1.0000 0.42508  0.96386  0.00570  Biso   1.000  O
  O61      1.0000 0.25368  0.40826  0.17710  Biso   1.000  O
  O62      1.0000 0.31768  0.47226  0.11310  Biso   1.000  O
  O63      1.0000 0.47558  0.63016  0.95520  Biso   1.000  O
  O64      1.0000 0.42508  0.57966  0.00570  Biso   1.000  O
  O65      1.0000 0.98068  0.13526  0.45010  Biso   1.000  O
  O66      1.0000 0.91668  0.07126  0.51410  Biso   1.000  O
  O67      1.0000 0.75878  0.91336  0.67200  Biso   1.000  O
  O68      1.0000 0.80928  0.96386  0.62150  Biso   1.000  O
  O69      1.0000 0.61718  0.77176  0.81360  Biso   1.000  O
  O70      1.0000 0.11718  0.27176  0.31360  Biso   1.000  O
  O71      1.0000 0.29248  0.15726  0.36730  Biso   1.000  O
  O72      1.0000 0.56088  0.88846  0.63650  Biso   1.000  O
  O73      1.0000 0.17088  0.15726  0.48890  Biso   1.000  O
  O74      1.0000 0.44008  0.88846  0.75730  Biso   1.000  O
  O75      1.0000 0.00268  0.44706  0.19910  Biso   1.000  O
  O76      1.0000 0.73388  0.71546  0.93030  Biso   1.000  O
  O77      1.0000 0.00268  0.32546  0.19910  Biso   1.000  O
  O78      1.0000 0.73388  0.59466  0.93030  Biso   1.000  O
  O79      1.0000 0.00268  0.32546  0.48890  Biso   1.000  O
  O80      1.0000 0.73388  0.59466  0.75730  Biso   1.000  O
  O81      1.0000 0.00268  0.44706  0.36730  Biso   1.000  O
  O82      1.0000 0.73388  0.71546  0.63650  Biso   1.000  O
  O83      1.0000 0.29248  0.15726  0.19910  Biso   1.000  O
  O84      1.0000 0.56088  0.88846  0.93030  Biso   1.000  O
  O85      1.0000 0.17088  0.15726  0.19910  Biso   1.000  O
  O86      1.0000 0.44008  0.88846  0.93030  Biso   1.000  O
  O87      1.0000 0.17088  0.44706  0.19910  Biso   1.000  O
  O88      1.0000 0.44008  0.71546  0.93030  Biso   1.000  O
  O89      1.0000 0.29248  0.32546  0.19910  Biso   1.000  O
  O90      1.0000 0.56088  0.59466  0.93030  Biso   1.000  O
  O91      1.0000 0.00268  0.15726  0.48890  Biso   1.000  O
  O92      1.0000 0.73388  0.88846  0.75730  Biso   1.000  O
  O93      1.0000 0.00268  0.15726  0.36730  Biso   1.000  O
