data_image0
_cell_length_a       15.7211
_cell_length_b       15.7211
_cell_length_c       15.7211
_cell_angle_alpha    70.1062
_cell_angle_beta     71.3706
_cell_angle_gamma    109.894

_symmetry_space_group_name_H-M    "P 1"
_symmetry_int_tables_number       1

loop_
  _symmetry_equiv_pos_as_xyz
  'x, y, z'

loop_
  _atom_site_label
  _atom_site_occupancy
  _atom_site_fract_x
  _atom_site_fract_y
  _atom_site_fract_z
  _atom_site_thermal_displace_type
  _atom_site_B_iso_or_equiv
  _atom_site_type_symbol
  C1       1.0000 0.90079  0.04940  0.53577  Biso   1.000  C
  C2       1.0000 0.96423  0.56344  0.58517  Biso   1.000  C
  C3       1.0000 0.35139  0.93656  0.59921  Biso   1.000  C
  C4       1.0000 0.91483  0.45060  0.14861  Biso   1.000  C
  C5       1.0000 0.08517  0.54940  0.85139  Biso   1.000  C
  C6       1.0000 0.64861  0.06344  0.40079  Biso   1.000  C
  C7       1.0000 0.03577  0.43656  0.41483  Biso   1.000  C
  C8       1.0000 0.09921  0.95060  0.46423  Biso   1.000  C
  C9       1.0000 0.71470  0.39440  0.11830  Biso   1.000  C
  C10      1.0000 0.38170  0.16700  0.51270  Biso   1.000  C
  C11      1.0000 0.98730  0.10560  0.67970  Biso   1.000  C
  C12      1.0000 0.61830  0.83300  0.48730  Biso   1.000  C
  C13      1.0000 0.27730  0.56550  0.05180  Biso   1.000  C
  C14      1.0000 0.21180  0.82910  0.22270  Biso   1.000  C
  C15      1.0000 0.01270  0.89440  0.32030  Biso   1.000  C
  C16      1.0000 0.82030  0.33300  0.78530  Biso   1.000  C
  C17      1.0000 0.44820  0.67090  0.61730  Biso   1.000  C
  C18      1.0000 0.28530  0.60560  0.88170  Biso   1.000  C
  C19      1.0000 0.11730  0.06550  0.71180  Biso   1.000  C
  C20      1.0000 0.72270  0.43450  0.94820  Biso   1.000  C
  C21      1.0000 0.88270  0.93450  0.28820  Biso   1.000  C
  C22      1.0000 0.17970  0.66700  0.21470  Biso   1.000  C
  C23      1.0000 0.55180  0.32910  0.38270  Biso   1.000  C
  C24      1.0000 0.78820  0.17090  0.77730  Biso   1.000  C
  C25      1.0000 0.27990  0.72360  0.69030  Biso   1.000  C
  C26      1.0000 0.09230  0.05430  0.66820  Biso   1.000  C
  C27      1.0000 0.19030  0.97020  0.58610  Biso   1.000  C
  C28      1.0000 0.55600  0.83040  0.52040  Biso   1.000  C
  C29      1.0000 0.60780  0.22540  0.38120  Biso   1.000  C
  C30      1.0000 0.89340  0.27460  0.61760  Biso   1.000  C
  C31      1.0000 0.44400  0.16960  0.47960  Biso   1.000  C
  C32      1.0000 0.77750  0.44570  0.96200  Biso   1.000  C
  C33      1.0000 0.90770  0.94570  0.33180  Biso   1.000  C
  C34      1.0000 0.85080  0.33040  0.72560  Biso   1.000  C
  C35      1.0000 0.97960  0.92360  0.35080  Biso   1.000  C
  C36      1.0000 0.11880  0.01100  0.60660  Biso   1.000  C
  C37      1.0000 0.22250  0.55430  0.03800  Biso   1.000  C
  C38      1.0000 0.10660  0.72540  0.38240  Biso   1.000  C
  C39      1.0000 0.11760  0.51100  0.10780  Biso   1.000  C
  C40      1.0000 0.16820  0.76050  0.27750  Biso   1.000  C
  C41      1.0000 0.53800  0.26050  0.40770  Biso   1.000  C
  C42      1.0000 0.91390  0.22360  0.55630  Biso   1.000  C
  C43      1.0000 0.08610  0.77640  0.44370  Biso   1.000  C
  C44      1.0000 0.46200  0.73950  0.59230  Biso   1.000  C
  C45      1.0000 0.80970  0.02980  0.41390  Biso   1.000  C
  C46      1.0000 0.02040  0.07640  0.64920  Biso   1.000  C
  C47      1.0000 0.94370  0.52980  0.77990  Biso   1.000  C
  C48      1.0000 0.83180  0.23950  0.72250  Biso   1.000  C
  C49      1.0000 0.22560  0.57640  0.94400  Biso   1.000  C
  C50      1.0000 0.77440  0.42360  0.05600  Biso   1.000  C
  C51      1.0000 0.88240  0.48900  0.89220  Biso   1.000  C
  C52      1.0000 0.72010  0.27640  0.30970  Biso   1.000  C
  C53      1.0000 0.88120  0.98900  0.39340  Biso   1.000  C
  C54      1.0000 0.05630  0.47020  0.22010  Biso   1.000  C
  C55      1.0000 0.39220  0.77460  0.61880  Biso   1.000  C
  C56      1.0000 0.14920  0.66960  0.27440  Biso   1.000  C
  C57      1.0000 0.12940  0.54960  0.95520  Biso   1.000  C
  C58      1.0000 0.55630  0.11900  0.43490  Biso   1.000  C
  C59      1.0000 0.05390  0.61900  0.43730  Biso   1.000  C
  C60      1.0000 0.00480  0.04960  0.57980  Biso   1.000  C
  C61      1.0000 0.93730  0.49120  0.94370  Biso   1.000  C
  C62      1.0000 0.54480  0.91540  0.50480  Biso   1.000  C
  C63      1.0000 0.06510  0.00880  0.55390  Biso   1.000  C
  C64      1.0000 0.99520  0.95040  0.42020  Biso   1.000  C
  C65      1.0000 0.87060  0.45040  0.04480  Biso   1.000  C
  C66      1.0000 0.07980  0.58460  0.37060  Biso   1.000  C
  C67      1.0000 0.06270  0.50880  0.05630  Biso   1.000  C
  C68      1.0000 0.45520  0.08460  0.49520  Biso   1.000  C
  C69      1.0000 0.93490  0.99120  0.44610  Biso   1.000  C
  C70      1.0000 0.94610  0.38100  0.56270  Biso   1.000  C
  C71      1.0000 0.92020  0.41540  0.62940  Biso   1.000  C
  C72      1.0000 0.44370  0.88100  0.56510  Biso   1.000  C
  C73      1.0000 0.24227  0.97170  0.63253  Biso   1.000  C
  C74      1.0000 0.80446  0.05990  0.47864  Biso   1.000  C
  C75      1.0000 0.10423  0.47170  0.27057  Biso   1.000  C
  C76      1.0000 0.75773  0.02830  0.36747  Biso   1.000  C
  C77      1.0000 0.02136  0.71690  0.53854  Biso   1.000  C
  C78      1.0000 0.19554  0.94010  0.52136  Biso   1.000  C
  C79      1.0000 0.96146  0.44010  0.25544  Biso   1.000  C
  C80      1.0000 0.13253  0.87480  0.39577  Biso   1.000  C
  C81      1.0000 0.24456  0.78310  0.69554  Biso   1.000  C
  C82      1.0000 0.03854  0.55990  0.74456  Biso   1.000  C
  C83      1.0000 0.75544  0.21690  0.30446  Biso   1.000  C
  C84      1.0000 0.97864  0.28310  0.46146  Biso   1.000  C
  C85      1.0000 0.77057  0.37480  0.25773  Biso   1.000  C
  C86      1.0000 0.22943  0.62520  0.74227  Biso   1.000  C
  C87      1.0000 0.89577  0.52830  0.72943  Biso   1.000  C
  C88      1.0000 0.86747  0.12520  0.60423  Biso   1.000  C
  O1       1.0000 0.74807  0.02819  0.07771  Biso   1.000  O
  O2       1.0000 0.81151  0.54223  0.12711  Biso   1.000  O
  O3       1.0000 0.19867  0.91535  0.14115  Biso   1.000  O
  O4       1.0000 0.76211  0.42939  0.69055  Biso   1.000  O
  O5       1.0000 0.93245  0.52819  0.39333  Biso   1.000  O
  O6       1.0000 0.49589  0.04223  0.94273  Biso   1.000  O
  O7       1.0000 0.88305  0.41535  0.95677  Biso   1.000  O
  O8       1.0000 0.94649  0.92939  0.00617  Biso   1.000  O
  O9       1.0000 0.56198  0.37319  0.66024  Biso   1.000  O
  O10      1.0000 0.22898  0.14579  0.05464  Biso   1.000  O
  O11      1.0000 0.83458  0.08439  0.22164  Biso   1.000  O
  O12      1.0000 0.46558  0.81179  0.02924  Biso   1.000  O
  O13      1.0000 0.12458  0.54429  0.59374  Biso   1.000  O
  O14      1.0000 0.05908  0.80789  0.76464  Biso   1.000  O
  O15      1.0000 0.85998  0.87319  0.86224  Biso   1.000  O
  O16      1.0000 0.66758  0.31179  0.32724  Biso   1.000  O
  O17      1.0000 0.29548  0.64969  0.15924  Biso   1.000  O
  O18      1.0000 0.13258  0.58439  0.42364  Biso   1.000  O
  O19      1.0000 0.96458  0.04429  0.25374  Biso   1.000  O
  O20      1.0000 0.56998  0.41329  0.49014  Biso   1.000  O
  O21      1.0000 0.72998  0.91329  0.83014  Biso   1.000  O
  O22      1.0000 0.02698  0.64579  0.75664  Biso   1.000  O
  O23      1.0000 0.39908  0.30789  0.92464  Biso   1.000  O
  O24      1.0000 0.63548  0.14969  0.31924  Biso   1.000  O
  O25      1.0000 0.12718  0.70239  0.23224  Biso   1.000  O
  O26      1.0000 0.93958  0.03309  0.21014  Biso   1.000  O
  O27      1.0000 0.03758  0.94899  0.12804  Biso   1.000  O
  O28      1.0000 0.40328  0.80919  0.06234  Biso   1.000  O
  O29      1.0000 0.45508  0.20419  0.92314  Biso   1.000  O
  O30      1.0000 0.74068  0.25339  0.15954  Biso   1.000  O
  O31      1.0000 0.29128  0.14839  0.02154  Biso   1.000  O
  O32      1.0000 0.62478  0.42449  0.50394  Biso   1.000  O
  O33      1.0000 0.75498  0.92449  0.87374  Biso   1.000  O
  O34      1.0000 0.69808  0.30919  0.26754  Biso   1.000  O
  O35      1.0000 0.82688  0.90239  0.89274  Biso   1.000  O
  O36      1.0000 0.96608  0.98979  0.14854  Biso   1.000  O
  O37      1.0000 0.06978  0.53309  0.57994  Biso   1.000  O
  O38      1.0000 0.95388  0.70419  0.92434  Biso   1.000  O
  O39      1.0000 0.96488  0.48979  0.64974  Biso   1.000  O
  O40      1.0000 0.01548  0.73929  0.81944  Biso   1.000  O
  O41      1.0000 0.38528  0.23929  0.94964  Biso   1.000  O
  O42      1.0000 0.76118  0.20239  0.09824  Biso   1.000  O
  O43      1.0000 0.93338  0.75519  0.98564  Biso   1.000  O
  O44      1.0000 0.30928  0.71829  0.13424  Biso   1.000  O
  O45      1.0000 0.65698  0.00859  0.95584  Biso   1.000  O
  O46      1.0000 0.86768  0.05519  0.19114  Biso   1.000  O
  O47      1.0000 0.79098  0.50859  0.32184  Biso   1.000  O
  O48      1.0000 0.67908  0.21829  0.26444  Biso   1.000  O
  O49      1.0000 0.07288  0.55519  0.48594  Biso   1.000  O
  O50      1.0000 0.62168  0.40239  0.59794  Biso   1.000  O
  O51      1.0000 0.72968  0.46779  0.43414  Biso   1.000  O
  O52      1.0000 0.56738  0.25519  0.85164  Biso   1.000  O
  O53      1.0000 0.72848  0.96779  0.93534  Biso   1.000  O
  O54      1.0000 0.90358  0.44899  0.76204  Biso   1.000  O
  O55      1.0000 0.23948  0.75339  0.16074  Biso   1.000  O
  O56      1.0000 0.99648  0.64839  0.81634  Biso   1.000  O
  O57      1.0000 0.97668  0.52839  0.49714  Biso   1.000  O
  O58      1.0000 0.40358  0.09779  0.97684  Biso   1.000  O
  O59      1.0000 0.90118  0.59779  0.97924  Biso   1.000  O
  O60      1.0000 0.85208  0.02839  0.12174  Biso   1.000  O
  O61      1.0000 0.78458  0.46999  0.48564  Biso   1.000  O
  O62      1.0000 0.39208  0.89419  0.04674  Biso   1.000  O
  O63      1.0000 0.91238  0.98759  0.09584  Biso   1.000  O
  O64      1.0000 0.84248  0.92919  0.96214  Biso   1.000  O
  O65      1.0000 0.71788  0.42919  0.58674  Biso   1.000  O
  O66      1.0000 0.92708  0.56339  0.91254  Biso   1.000  O
  O67      1.0000 0.90998  0.48759  0.59824  Biso   1.000  O
  O68      1.0000 0.30248  0.06339  0.03714  Biso   1.000  O
  O69      1.0000 0.78218  0.96999  0.98804  Biso   1.000  O
  O70      1.0000 0.79338  0.35979  0.10464  Biso   1.000  O
  O71      1.0000 0.76748  0.39419  0.17134  Biso   1.000  O
  O72      1.0000 0.29098  0.85979  0.10704  Biso   1.000  O
  O73      1.0000 0.08955  0.95049  0.17447  Biso   1.000  O
  O74      1.0000 0.65174  0.03869  0.02058  Biso   1.000  O
  O75      1.0000 0.95151  0.45049  0.81251  Biso   1.000  O
  O76      1.0000 0.60501  0.00709  0.90941  Biso   1.000  O
  O77      1.0000 0.86864  0.69569  0.08048  Biso   1.000  O
  O78      1.0000 0.04282  0.91889  0.06330  Biso   1.000  O
  O79      1.0000 0.80874  0.41889  0.79738  Biso   1.000  O
  O80      1.0000 0.97981  0.85359  0.93771  Biso   1.000  O
  O81      1.0000 0.09184  0.76189  0.23748  Biso   1.000  O
  O82      1.0000 0.88582  0.53869  0.28650  Biso   1.000  O
  O83      1.0000 0.60272  0.19569  0.84640  Biso   1.000  O
  O84      1.0000 0.82592  0.26189  0.00340  Biso   1.000  O
  O85      1.0000 0.61785  0.35359  0.79967  Biso   1.000  O
  O86      1.0000 0.07671  0.60399  0.28421  Biso   1.000  O
  O87      1.0000 0.74305  0.50709  0.27137  Biso   1.000  O
