data_image0
_cell_length_a       9.042
_cell_length_b       9.042
_cell_length_c       12.027
_cell_angle_alpha    90
_cell_angle_beta     90
_cell_angle_gamma    90

_symmetry_space_group_name_H-M    "P 1"
_symmetry_int_tables_number       1

loop_
  _symmetry_equiv_pos_as_xyz
  'x, y, z'

loop_
  _atom_site_label
  _atom_site_occupancy
  _atom_site_fract_x
  _atom_site_fract_y
  _atom_site_fract_z
  _atom_site_thermal_displace_type
  _atom_site_B_iso_or_equiv
  _atom_site_type_symbol
  C1       1.0000 0.69022  0.69022  0.00000  Biso   1.000  C
  C2       1.0000 0.30978  0.30978  0.50000  Biso   1.000  C
  C3       1.0000 0.80978  0.19022  0.75000  Biso   1.000  C
  C4       1.0000 0.19022  0.80978  0.25000  Biso   1.000  C
  C5       1.0000 0.73300  0.88760  0.89390  Biso   1.000  C
  C6       1.0000 0.26700  0.11240  0.39390  Biso   1.000  C
  C7       1.0000 0.61240  0.23300  0.64390  Biso   1.000  C
  C8       1.0000 0.38760  0.76700  0.14390  Biso   1.000  C
  C9       1.0000 0.76700  0.38760  0.85610  Biso   1.000  C
  C10      1.0000 0.23300  0.61240  0.35610  Biso   1.000  C
  C11      1.0000 0.88760  0.73300  0.10610  Biso   1.000  C
  C12      1.0000 0.11240  0.26700  0.60610  Biso   1.000  C
  C13      1.0000 0.48930  0.73940  0.09410  Biso   1.000  C
  C14      1.0000 0.51070  0.26060  0.59410  Biso   1.000  C
  C15      1.0000 0.76060  0.98930  0.84410  Biso   1.000  C
  C16      1.0000 0.23940  0.01070  0.34410  Biso   1.000  C
  C17      1.0000 0.01070  0.23940  0.65590  Biso   1.000  C
  C18      1.0000 0.98930  0.76060  0.15590  Biso   1.000  C
  C19      1.0000 0.73940  0.48930  0.90590  Biso   1.000  C
  C20      1.0000 0.26060  0.51070  0.40590  Biso   1.000  C
  O1       1.0000 0.77417  0.22119  0.24944  Biso   1.000  O
  O2       1.0000 0.15461  0.84075  0.74944  Biso   1.000  O
  O3       1.0000 0.65461  0.72119  0.49944  Biso   1.000  O
  O4       1.0000 0.27417  0.34075  0.99944  Biso   1.000  O
  O5       1.0000 0.73139  0.41857  0.35554  Biso   1.000  O
  O6       1.0000 0.19739  0.64337  0.85554  Biso   1.000  O
  O7       1.0000 0.85199  0.76397  0.60554  Biso   1.000  O
  O8       1.0000 0.07679  0.29797  0.10554  Biso   1.000  O
  O9       1.0000 0.69739  0.91857  0.39334  Biso   1.000  O
  O10      1.0000 0.23139  0.14337  0.89334  Biso   1.000  O
  O11      1.0000 0.57678  0.26397  0.14334  Biso   1.000  O
  O12      1.0000 0.35199  0.79797  0.64334  Biso   1.000  O
  O13      1.0000 0.97509  0.27037  0.15534  Biso   1.000  O
  O14      1.0000 0.95369  0.79157  0.65534  Biso   1.000  O
  O15      1.0000 0.70379  0.52027  0.40534  Biso   1.000  O
  O16      1.0000 0.22499  0.54167  0.90534  Biso   1.000  O
  O17      1.0000 0.45369  0.77037  0.59354  Biso   1.000  O
  O18      1.0000 0.47509  0.29157  0.09354  Biso   1.000  O
  O19      1.0000 0.72499  0.02027  0.34354  Biso   1.000  O
