data_image0
_cell_length_a       18.3098
_cell_length_b       18.3098
_cell_length_c       18.3098
_cell_angle_alpha    60
_cell_angle_beta     60
_cell_angle_gamma    60

_symmetry_space_group_name_H-M    "P 1"
_symmetry_int_tables_number       1

loop_
  _symmetry_equiv_pos_as_xyz
  'x, y, z'

loop_
  _atom_site_label
  _atom_site_occupancy
  _atom_site_fract_x
  _atom_site_fract_y
  _atom_site_fract_z
  _atom_site_thermal_displace_type
  _atom_site_B_iso_or_equiv
  _atom_site_type_symbol
  C1       1.0000 0.20657  0.38027  0.20658  Biso   1.000  C
  C2       1.0000 0.38026  0.20658  0.20658  Biso   1.000  C
  C3       1.0000 0.20657  0.20658  0.20658  Biso   1.000  C
  C4       1.0000 0.20657  0.20658  0.38027  Biso   1.000  C
  C5       1.0000 0.61974  0.79342  0.79342  Biso   1.000  C
  C6       1.0000 0.79343  0.61973  0.79342  Biso   1.000  C
  C7       1.0000 0.79343  0.79342  0.79342  Biso   1.000  C
  C8       1.0000 0.79343  0.79342  0.61973  Biso   1.000  C
  C9       1.0000 0.04510  0.56570  0.04510  Biso   1.000  C
  C10      1.0000 0.56570  0.04510  0.34410  Biso   1.000  C
  C11      1.0000 0.04510  0.34410  0.04510  Biso   1.000  C
  C12      1.0000 0.34410  0.04510  0.56570  Biso   1.000  C
  C13      1.0000 0.04510  0.04510  0.34410  Biso   1.000  C
  C14      1.0000 0.56570  0.34410  0.04510  Biso   1.000  C
  C15      1.0000 0.04510  0.04510  0.56570  Biso   1.000  C
  C16      1.0000 0.34410  0.56570  0.04510  Biso   1.000  C
  C17      1.0000 0.04510  0.34410  0.56570  Biso   1.000  C
  C18      1.0000 0.56570  0.04510  0.04510  Biso   1.000  C
  C19      1.0000 0.04510  0.56570  0.34410  Biso   1.000  C
  C20      1.0000 0.34410  0.04510  0.04510  Biso   1.000  C
  C21      1.0000 0.43430  0.95490  0.95490  Biso   1.000  C
  C22      1.0000 0.95490  0.43430  0.65590  Biso   1.000  C
  C23      1.0000 0.65590  0.95490  0.95490  Biso   1.000  C
  C24      1.0000 0.95490  0.65590  0.43430  Biso   1.000  C
  C25      1.0000 0.95490  0.95490  0.65590  Biso   1.000  C
  C26      1.0000 0.65590  0.43430  0.95490  Biso   1.000  C
  C27      1.0000 0.95490  0.95490  0.43430  Biso   1.000  C
  C28      1.0000 0.43430  0.65590  0.95490  Biso   1.000  C
  C29      1.0000 0.65590  0.95490  0.43430  Biso   1.000  C
  C30      1.0000 0.95490  0.43430  0.95490  Biso   1.000  C
  C31      1.0000 0.43430  0.95490  0.65590  Biso   1.000  C
  C32      1.0000 0.95490  0.65590  0.95490  Biso   1.000  C
  C33      1.0000 0.02677  0.53915  0.02677  Biso   1.000  C
  C34      1.0000 0.53915  0.02677  0.40731  Biso   1.000  C
  C35      1.0000 0.02677  0.40731  0.02677  Biso   1.000  C
  C36      1.0000 0.40731  0.02677  0.53915  Biso   1.000  C
  C37      1.0000 0.02677  0.02677  0.40731  Biso   1.000  C
  C38      1.0000 0.53915  0.40731  0.02677  Biso   1.000  C
  C39      1.0000 0.02677  0.02677  0.53915  Biso   1.000  C
  C40      1.0000 0.40731  0.53915  0.02677  Biso   1.000  C
  C41      1.0000 0.02677  0.40731  0.53915  Biso   1.000  C
  C42      1.0000 0.53915  0.02677  0.02677  Biso   1.000  C
  C43      1.0000 0.02677  0.53915  0.40731  Biso   1.000  C
  C44      1.0000 0.40731  0.02677  0.02677  Biso   1.000  C
  C45      1.0000 0.46085  0.97323  0.97323  Biso   1.000  C
  C46      1.0000 0.97323  0.46085  0.59269  Biso   1.000  C
  C47      1.0000 0.59269  0.97323  0.97323  Biso   1.000  C
  C48      1.0000 0.97323  0.59269  0.46085  Biso   1.000  C
  C49      1.0000 0.97323  0.97323  0.59269  Biso   1.000  C
  C50      1.0000 0.59269  0.46085  0.97323  Biso   1.000  C
  C51      1.0000 0.97323  0.97323  0.46085  Biso   1.000  C
  C52      1.0000 0.46085  0.59269  0.97323  Biso   1.000  C
  C53      1.0000 0.59269  0.97323  0.46085  Biso   1.000  C
  C54      1.0000 0.97323  0.46085  0.97323  Biso   1.000  C
  C55      1.0000 0.46085  0.97323  0.59269  Biso   1.000  C
  C56      1.0000 0.97323  0.59269  0.97323  Biso   1.000  C
  C57      1.0000 0.11154  0.38846  0.11154  Biso   1.000  C
  C58      1.0000 0.05373  0.44627  0.05373  Biso   1.000  C
  C59      1.0000 0.38846  0.11154  0.38846  Biso   1.000  C
  C60      1.0000 0.44627  0.05373  0.44627  Biso   1.000  C
  C61      1.0000 0.11154  0.11154  0.38846  Biso   1.000  C
  C62      1.0000 0.05373  0.05373  0.44627  Biso   1.000  C
  C63      1.0000 0.38846  0.38846  0.11154  Biso   1.000  C
  C64      1.0000 0.44627  0.44627  0.05373  Biso   1.000  C
  C65      1.0000 0.11154  0.38846  0.38846  Biso   1.000  C
  C66      1.0000 0.05373  0.44627  0.44627  Biso   1.000  C
  C67      1.0000 0.38846  0.11154  0.11154  Biso   1.000  C
  C68      1.0000 0.44627  0.05373  0.05373  Biso   1.000  C
  C69      1.0000 0.61154  0.88846  0.88846  Biso   1.000  C
  C70      1.0000 0.55373  0.94627  0.94627  Biso   1.000  C
  C71      1.0000 0.88846  0.61154  0.61154  Biso   1.000  C
  C72      1.0000 0.94627  0.55373  0.55373  Biso   1.000  C
  C73      1.0000 0.88846  0.88846  0.61154  Biso   1.000  C
  C74      1.0000 0.94627  0.94627  0.55373  Biso   1.000  C
  C75      1.0000 0.61154  0.61154  0.88846  Biso   1.000  C
  C76      1.0000 0.55373  0.55373  0.94627  Biso   1.000  C
  C77      1.0000 0.61154  0.88846  0.61154  Biso   1.000  C
  C78      1.0000 0.55373  0.94627  0.55373  Biso   1.000  C
  C79      1.0000 0.88846  0.61154  0.88846  Biso   1.000  C
  C80      1.0000 0.94627  0.55373  0.94627  Biso   1.000  C
  C81      1.0000 0.25000  0.25000  0.25000  Biso   1.000  C
  C82      1.0000 0.75000  0.75000  0.75000  Biso   1.000  C
  C83      1.0000 0.13372  0.42766  0.13372  Biso   1.000  C
  C84      1.0000 0.42766  0.13372  0.30490  Biso   1.000  C
  C85      1.0000 0.13372  0.30490  0.13372  Biso   1.000  C
  C86      1.0000 0.30490  0.13372  0.42766  Biso   1.000  C
  C87      1.0000 0.13372  0.13372  0.30490  Biso   1.000  C
  C88      1.0000 0.42766  0.30490  0.13372  Biso   1.000  C
  C89      1.0000 0.13372  0.13372  0.42766  Biso   1.000  C
  C90      1.0000 0.30490  0.42766  0.13372  Biso   1.000  C
  C91      1.0000 0.13372  0.30490  0.42766  Biso   1.000  C
  C92      1.0000 0.42766  0.13372  0.13372  Biso   1.000  C
  C93      1.0000 0.13372  0.42766  0.30490  Biso   1.000  C
  C94      1.0000 0.30490  0.13372  0.13372  Biso   1.000  C
  C95      1.0000 0.57234  0.86628  0.86628  Biso   1.000  C
  C96      1.0000 0.86628  0.57234  0.69510  Biso   1.000  C
  C97      1.0000 0.69510  0.86628  0.86628  Biso   1.000  C
  C98      1.0000 0.86628  0.69510  0.57234  Biso   1.000  C
  C99      1.0000 0.86628  0.86628  0.69510  Biso   1.000  C
  C100     1.0000 0.69510  0.57234  0.86628  Biso   1.000  C
  C101     1.0000 0.86628  0.86628  0.57234  Biso   1.000  C
  C102     1.0000 0.57234  0.69510  0.86628  Biso   1.000  C
  C103     1.0000 0.69510  0.86628  0.57234  Biso   1.000  C
  C104     1.0000 0.86628  0.57234  0.86628  Biso   1.000  C
  C105     1.0000 0.57234  0.86628  0.69510  Biso   1.000  C
  C106     1.0000 0.86628  0.69510  0.86628  Biso   1.000  C
  O1       1.0000 0.00000  0.00000  0.00000  Biso   1.000  O
  O2       1.0000 1.00000  0.17369  0.00000  Biso   1.000  O
  O3       1.0000 0.82631  0.17369  0.00000  Biso   1.000  O
  O4       1.0000 1.00000  0.17369  0.82631  Biso   1.000  O
  O5       1.0000 0.41316  0.58685  0.41316  Biso   1.000  O
  O6       1.0000 0.41316  0.76054  0.41316  Biso   1.000  O
  O7       1.0000 0.58685  0.58685  0.41316  Biso   1.000  O
  O8       1.0000 0.41316  0.58685  0.58685  Biso   1.000  O
  O9       1.0000 0.86248  0.81457  0.16148  Biso   1.000  O
  O10      1.0000 0.16148  0.33517  0.86248  Biso   1.000  O
  O11      1.0000 0.64088  0.03617  0.16148  Biso   1.000  O
  O12      1.0000 0.16148  0.33517  0.64088  Biso   1.000  O
  O13      1.0000 0.64088  0.33517  0.86248  Biso   1.000  O
  O14      1.0000 0.16148  0.03617  0.16148  Biso   1.000  O
  O15      1.0000 0.86248  0.33517  0.64088  Biso   1.000  O
  O16      1.0000 0.16148  0.81457  0.16148  Biso   1.000  O
  O17      1.0000 0.16148  0.03617  0.64088  Biso   1.000  O
  O18      1.0000 0.86248  0.33517  0.16148  Biso   1.000  O
  O19      1.0000 0.16148  0.81457  0.86248  Biso   1.000  O
  O20      1.0000 0.64088  0.33517  0.16148  Biso   1.000  O
  O21      1.0000 0.55068  0.42537  0.25168  Biso   1.000  O
  O22      1.0000 0.25168  0.94597  0.55068  Biso   1.000  O
  O23      1.0000 0.77228  0.42537  0.25168  Biso   1.000  O
  O24      1.0000 0.25168  0.72437  0.77228  Biso   1.000  O
  O25      1.0000 0.77228  0.42537  0.55068  Biso   1.000  O
  O26      1.0000 0.25168  0.94597  0.25168  Biso   1.000  O
  O27      1.0000 0.55068  0.42537  0.77228  Biso   1.000  O
  O28      1.0000 0.25168  0.72437  0.25168  Biso   1.000  O
  O29      1.0000 0.25168  0.42537  0.77228  Biso   1.000  O
  O30      1.0000 0.55068  0.94597  0.25168  Biso   1.000  O
  O31      1.0000 0.25168  0.42537  0.55068  Biso   1.000  O
  O32      1.0000 0.77228  0.72437  0.25168  Biso   1.000  O
  O33      1.0000 0.79927  0.84112  0.17981  Biso   1.000  O
  O34      1.0000 0.17981  0.35350  0.79927  Biso   1.000  O
  O35      1.0000 0.66743  0.97296  0.17981  Biso   1.000  O
  O36      1.0000 0.17981  0.35350  0.66743  Biso   1.000  O
  O37      1.0000 0.66743  0.35350  0.79927  Biso   1.000  O
  O38      1.0000 0.17981  0.97296  0.17981  Biso   1.000  O
  O39      1.0000 0.79927  0.35350  0.66743  Biso   1.000  O
  O40      1.0000 0.17981  0.84112  0.17981  Biso   1.000  O
  O41      1.0000 0.17981  0.97296  0.66743  Biso   1.000  O
  O42      1.0000 0.79927  0.35350  0.17981  Biso   1.000  O
  O43      1.0000 0.17981  0.84112  0.79927  Biso   1.000  O
  O44      1.0000 0.66743  0.35350  0.17981  Biso   1.000  O
  O45      1.0000 0.61389  0.40704  0.23335  Biso   1.000  O
  O46      1.0000 0.23335  0.91942  0.61389  Biso   1.000  O
  O47      1.0000 0.74573  0.40704  0.23335  Biso   1.000  O
  O48      1.0000 0.23335  0.78758  0.74573  Biso   1.000  O
  O49      1.0000 0.74573  0.40704  0.61389  Biso   1.000  O
  O50      1.0000 0.23335  0.91942  0.23335  Biso   1.000  O
  O51      1.0000 0.61389  0.40704  0.74573  Biso   1.000  O
  O52      1.0000 0.23335  0.78758  0.23335  Biso   1.000  O
  O53      1.0000 0.23335  0.40704  0.74573  Biso   1.000  O
  O54      1.0000 0.61389  0.91942  0.23335  Biso   1.000  O
  O55      1.0000 0.23335  0.40704  0.61389  Biso   1.000  O
  O56      1.0000 0.74573  0.78758  0.23335  Biso   1.000  O
  O57      1.0000 0.81812  0.99181  0.09504  Biso   1.000  O
  O58      1.0000 0.76031  0.93400  0.15285  Biso   1.000  O
  O59      1.0000 0.09504  0.26873  0.81812  Biso   1.000  O
  O60      1.0000 0.15285  0.32654  0.76031  Biso   1.000  O
  O61      1.0000 0.81812  0.26873  0.81812  Biso   1.000  O
  O62      1.0000 0.76031  0.32654  0.76031  Biso   1.000  O
  O63      1.0000 0.09504  0.99181  0.09504  Biso   1.000  O
  O64      1.0000 0.15285  0.93400  0.15285  Biso   1.000  O
  O65      1.0000 0.09504  0.99181  0.81812  Biso   1.000  O
  O66      1.0000 0.15285  0.93400  0.76031  Biso   1.000  O
  O67      1.0000 0.81812  0.26873  0.09504  Biso   1.000  O
  O68      1.0000 0.76031  0.32654  0.15285  Biso   1.000  O
  O69      1.0000 0.59504  0.49181  0.31812  Biso   1.000  O
  O70      1.0000 0.65285  0.43400  0.26031  Biso   1.000  O
  O71      1.0000 0.31812  0.76873  0.59504  Biso   1.000  O
  O72      1.0000 0.26031  0.82654  0.65285  Biso   1.000  O
  O73      1.0000 0.59504  0.49181  0.59504  Biso   1.000  O
  O74      1.0000 0.65285  0.43400  0.65285  Biso   1.000  O
  O75      1.0000 0.31812  0.76873  0.31812  Biso   1.000  O
  O76      1.0000 0.26031  0.82654  0.26031  Biso   1.000  O
  O77      1.0000 0.31812  0.49181  0.59504  Biso   1.000  O
  O78      1.0000 0.26031  0.43400  0.65285  Biso   1.000  O
  O79      1.0000 0.59504  0.76873  0.31812  Biso   1.000  O
  O80      1.0000 0.65285  0.82654  0.26031  Biso   1.000  O
  O81      1.0000 0.95658  0.13027  0.95658  Biso   1.000  O
  O82      1.0000 0.45658  0.63027  0.45658  Biso   1.000  O
  O83      1.0000 0.90168  0.95261  0.07286  Biso   1.000  O
  O84      1.0000 0.07286  0.24655  0.90168  Biso   1.000  O
  O85      1.0000 0.77892  0.07537  0.07286  Biso   1.000  O
  O86      1.0000 0.07286  0.24655  0.77892  Biso   1.000  O
  O87      1.0000 0.77892  0.24655  0.90168  Biso   1.000  O
  O88      1.0000 0.07286  0.07537  0.07286  Biso   1.000  O
  O89      1.0000 0.90168  0.24655  0.77892  Biso   1.000  O
  O90      1.0000 0.07286  0.95261  0.07286  Biso   1.000  O
  O91      1.0000 0.07286  0.07537  0.77892  Biso   1.000  O
  O92      1.0000 0.90168  0.24655  0.07286  Biso   1.000  O
  O93      1.0000 0.07286  0.95261  0.90168  Biso   1.000  O
  O94      1.0000 0.77892  0.24655  0.07286  Biso   1.000  O
  O95      1.0000 0.51148  0.51399  0.34030  Biso   1.000  O
  O96      1.0000 0.34030  0.80793  0.51148  Biso   1.000  O
  O97      1.0000 0.63424  0.51399  0.34030  Biso   1.000  O
  O98      1.0000 0.34030  0.68517  0.63424  Biso   1.000  O
  O99      1.0000 0.63424  0.51399  0.51148  Biso   1.000  O
  O100     1.0000 0.34030  0.80793  0.34030  Biso   1.000  O
  O101     1.0000 0.51148  0.51399  0.63424  Biso   1.000  O
  O102     1.0000 0.34030  0.68517  0.34030  Biso   1.000  O
  O103     1.0000 0.34030  0.51399  0.63424  Biso   1.000  O
  O104     1.0000 0.51148  0.80793  0.34030  Biso   1.000  O
  O105     1.0000 0.34030  0.51399  0.51148  Biso   1.000  O
