data_image0
_cell_length_a       18.1507
_cell_length_b       18.1507
_cell_length_c       18.1507
_cell_angle_alpha    60
_cell_angle_beta     60
_cell_angle_gamma    60

_symmetry_space_group_name_H-M    "P 1"
_symmetry_int_tables_number       1

loop_
  _symmetry_equiv_pos_as_xyz
  'x, y, z'

loop_
  _atom_site_label
  _atom_site_occupancy
  _atom_site_fract_x
  _atom_site_fract_y
  _atom_site_fract_z
  _atom_site_thermal_displace_type
  _atom_site_B_iso_or_equiv
  _atom_site_type_symbol
  C1       1.0000 0.29350  0.29350  0.29350  Biso   1.000  C
  C2       1.0000 0.29350  0.29350  0.11950  Biso   1.000  C
  C3       1.0000 0.29350  0.11950  0.29350  Biso   1.000  C
  C4       1.0000 0.11950  0.29350  0.29350  Biso   1.000  C
  C5       1.0000 0.70650  0.70650  0.70650  Biso   1.000  C
  C6       1.0000 0.70650  0.70650  0.88050  Biso   1.000  C
  C7       1.0000 0.88050  0.70650  0.70650  Biso   1.000  C
  C8       1.0000 0.70650  0.88050  0.70650  Biso   1.000  C
  C9       1.0000 0.45480  0.45480  0.15700  Biso   1.000  C
  C10      1.0000 0.45480  0.45480  0.93340  Biso   1.000  C
  C11      1.0000 0.15700  0.93340  0.45480  Biso   1.000  C
  C12      1.0000 0.93340  0.15700  0.45480  Biso   1.000  C
  C13      1.0000 0.45480  0.15700  0.93340  Biso   1.000  C
  C14      1.0000 0.45480  0.93340  0.15700  Biso   1.000  C
  C15      1.0000 0.15700  0.45480  0.45480  Biso   1.000  C
  C16      1.0000 0.93340  0.45480  0.45480  Biso   1.000  C
  C17      1.0000 0.45480  0.93340  0.45480  Biso   1.000  C
  C18      1.0000 0.45480  0.15700  0.45480  Biso   1.000  C
  C19      1.0000 0.15700  0.45480  0.93340  Biso   1.000  C
  C20      1.0000 0.93340  0.45480  0.15700  Biso   1.000  C
  C21      1.0000 0.54520  0.54520  0.84300  Biso   1.000  C
  C22      1.0000 0.54520  0.54520  0.06660  Biso   1.000  C
  C23      1.0000 0.06660  0.84300  0.54520  Biso   1.000  C
  C24      1.0000 0.84300  0.06660  0.54520  Biso   1.000  C
  C25      1.0000 0.84300  0.54520  0.06660  Biso   1.000  C
  C26      1.0000 0.06660  0.54520  0.84300  Biso   1.000  C
  C27      1.0000 0.54520  0.84300  0.54520  Biso   1.000  C
  C28      1.0000 0.54520  0.06660  0.54520  Biso   1.000  C
  C29      1.0000 0.06660  0.54520  0.54520  Biso   1.000  C
  C30      1.0000 0.84300  0.54520  0.54520  Biso   1.000  C
  C31      1.0000 0.54520  0.84300  0.06660  Biso   1.000  C
  C32      1.0000 0.54520  0.06660  0.84300  Biso   1.000  C
  C33      1.0000 0.47370  0.47370  0.09250  Biso   1.000  C
  C34      1.0000 0.47370  0.47370  0.96010  Biso   1.000  C
  C35      1.0000 0.09250  0.96010  0.47370  Biso   1.000  C
  C36      1.0000 0.96010  0.09250  0.47370  Biso   1.000  C
  C37      1.0000 0.47370  0.09250  0.96010  Biso   1.000  C
  C38      1.0000 0.47370  0.96010  0.09250  Biso   1.000  C
  C39      1.0000 0.09250  0.47370  0.47370  Biso   1.000  C
  C40      1.0000 0.96010  0.47370  0.47370  Biso   1.000  C
  C41      1.0000 0.47370  0.96010  0.47370  Biso   1.000  C
  C42      1.0000 0.47370  0.09250  0.47370  Biso   1.000  C
  C43      1.0000 0.09250  0.47370  0.96010  Biso   1.000  C
  C44      1.0000 0.96010  0.47370  0.09250  Biso   1.000  C
  C45      1.0000 0.52630  0.52630  0.90750  Biso   1.000  C
  C46      1.0000 0.52630  0.52630  0.03990  Biso   1.000  C
  C47      1.0000 0.03990  0.90750  0.52630  Biso   1.000  C
  C48      1.0000 0.90750  0.03990  0.52630  Biso   1.000  C
  C49      1.0000 0.90750  0.52630  0.03990  Biso   1.000  C
  C50      1.0000 0.03990  0.52630  0.90750  Biso   1.000  C
  C51      1.0000 0.52630  0.90750  0.52630  Biso   1.000  C
  C52      1.0000 0.52630  0.03990  0.52630  Biso   1.000  C
  C53      1.0000 0.03990  0.52630  0.52630  Biso   1.000  C
  C54      1.0000 0.90750  0.52630  0.52630  Biso   1.000  C
  C55      1.0000 0.52630  0.90750  0.03990  Biso   1.000  C
  C56      1.0000 0.52630  0.03990  0.90750  Biso   1.000  C
  C57      1.0000 0.38950  0.38950  0.11050  Biso   1.000  C
  C58      1.0000 0.44620  0.44620  0.05380  Biso   1.000  C
  C59      1.0000 0.11050  0.11050  0.38950  Biso   1.000  C
  C60      1.0000 0.05380  0.05380  0.44620  Biso   1.000  C
  C61      1.0000 0.38950  0.11050  0.11050  Biso   1.000  C
  C62      1.0000 0.44620  0.05380  0.05380  Biso   1.000  C
  C63      1.0000 0.11050  0.38950  0.38950  Biso   1.000  C
  C64      1.0000 0.05380  0.44620  0.44620  Biso   1.000  C
  C65      1.0000 0.38950  0.11050  0.38950  Biso   1.000  C
  C66      1.0000 0.44620  0.05380  0.44620  Biso   1.000  C
  C67      1.0000 0.11050  0.38950  0.11050  Biso   1.000  C
  C68      1.0000 0.05380  0.44620  0.05380  Biso   1.000  C
  C69      1.0000 0.61050  0.61050  0.88950  Biso   1.000  C
  C70      1.0000 0.55380  0.55380  0.94620  Biso   1.000  C
  C71      1.0000 0.88950  0.88950  0.61050  Biso   1.000  C
  C72      1.0000 0.94620  0.94620  0.55380  Biso   1.000  C
  C73      1.0000 0.88950  0.61050  0.88950  Biso   1.000  C
  C74      1.0000 0.94620  0.55380  0.94620  Biso   1.000  C
  C75      1.0000 0.61050  0.88950  0.61050  Biso   1.000  C
  C76      1.0000 0.55380  0.94620  0.55380  Biso   1.000  C
  C77      1.0000 0.88950  0.61050  0.61050  Biso   1.000  C
  C78      1.0000 0.94620  0.55380  0.55380  Biso   1.000  C
  C79      1.0000 0.61050  0.88950  0.88950  Biso   1.000  C
  C80      1.0000 0.55380  0.94620  0.94620  Biso   1.000  C
  C81      1.0000 0.25000  0.25000  0.25000  Biso   1.000  C
  C82      1.0000 0.75000  0.75000  0.75000  Biso   1.000  C
  C83      1.0000 0.36610  0.36610  0.19750  Biso   1.000  C
  C84      1.0000 0.36610  0.36610  0.07030  Biso   1.000  C
  C85      1.0000 0.19750  0.07030  0.36610  Biso   1.000  C
  C86      1.0000 0.07030  0.19750  0.36610  Biso   1.000  C
  C87      1.0000 0.36610  0.19750  0.07030  Biso   1.000  C
  C88      1.0000 0.36610  0.07030  0.19750  Biso   1.000  C
  C89      1.0000 0.19750  0.36610  0.36610  Biso   1.000  C
  C90      1.0000 0.07030  0.36610  0.36610  Biso   1.000  C
  C91      1.0000 0.36610  0.07030  0.36610  Biso   1.000  C
  C92      1.0000 0.36610  0.19750  0.36610  Biso   1.000  C
  C93      1.0000 0.19750  0.36610  0.07030  Biso   1.000  C
  C94      1.0000 0.07030  0.36610  0.19750  Biso   1.000  C
  C95      1.0000 0.63390  0.63390  0.80250  Biso   1.000  C
  C96      1.0000 0.63390  0.63390  0.92970  Biso   1.000  C
  C97      1.0000 0.92970  0.80250  0.63390  Biso   1.000  C
  C98      1.0000 0.80250  0.92970  0.63390  Biso   1.000  C
  C99      1.0000 0.80250  0.63390  0.92970  Biso   1.000  C
  C100     1.0000 0.92970  0.63390  0.80250  Biso   1.000  C
  C101     1.0000 0.63390  0.80250  0.63390  Biso   1.000  C
  C102     1.0000 0.63390  0.92970  0.63390  Biso   1.000  C
  C103     1.0000 0.92970  0.63390  0.63390  Biso   1.000  C
  C104     1.0000 0.80250  0.63390  0.63390  Biso   1.000  C
  C105     1.0000 0.63390  0.80250  0.92970  Biso   1.000  C
  C106     1.0000 0.63390  0.92970  0.80250  Biso   1.000  C
  O1       1.0000 0.68145  0.47873  0.47234  Biso   1.000  O
  O2       1.0000 0.50745  0.47873  0.64634  Biso   1.000  O
  O3       1.0000 0.50745  0.65273  0.47234  Biso   1.000  O
  O4       1.0000 0.50745  0.47873  0.47234  Biso   1.000  O
  O5       1.0000 0.92045  0.06573  0.05934  Biso   1.000  O
  O6       1.0000 0.09445  0.06573  0.88534  Biso   1.000  O
  O7       1.0000 0.09445  0.06573  0.05934  Biso   1.000  O
  O8       1.0000 0.09445  0.89173  0.05934  Biso   1.000  O
  O9       1.0000 0.86755  0.31743  0.60884  Biso   1.000  O
  O10      1.0000 0.64395  0.31743  0.83244  Biso   1.000  O
  O11      1.0000 0.34615  0.83883  0.31104  Biso   1.000  O
  O12      1.0000 0.34615  0.61523  0.31104  Biso   1.000  O
  O13      1.0000 0.34615  0.61523  0.83244  Biso   1.000  O
  O14      1.0000 0.34615  0.83883  0.60884  Biso   1.000  O
  O15      1.0000 0.86755  0.31743  0.31104  Biso   1.000  O
  O16      1.0000 0.64395  0.31743  0.31104  Biso   1.000  O
  O17      1.0000 0.64395  0.83883  0.31104  Biso   1.000  O
  O18      1.0000 0.86755  0.61523  0.31104  Biso   1.000  O
  O19      1.0000 0.34615  0.31743  0.83244  Biso   1.000  O
  O20      1.0000 0.34615  0.31743  0.60884  Biso   1.000  O
  O21      1.0000 0.73435  0.22703  0.92284  Biso   1.000  O
  O22      1.0000 0.95795  0.22703  0.69924  Biso   1.000  O
  O23      1.0000 0.25575  0.92923  0.22064  Biso   1.000  O
  O24      1.0000 0.25575  0.70563  0.22064  Biso   1.000  O
  O25      1.0000 0.25575  0.22703  0.69924  Biso   1.000  O
  O26      1.0000 0.25575  0.22703  0.92284  Biso   1.000  O
  O27      1.0000 0.73435  0.92923  0.22064  Biso   1.000  O
  O28      1.0000 0.95795  0.70563  0.22064  Biso   1.000  O
  O29      1.0000 0.95795  0.22703  0.22064  Biso   1.000  O
  O30      1.0000 0.73435  0.22703  0.22064  Biso   1.000  O
  O31      1.0000 0.25575  0.92923  0.69924  Biso   1.000  O
  O32      1.0000 0.25575  0.70563  0.92284  Biso   1.000  O
  O33      1.0000 0.84085  0.29853  0.67334  Biso   1.000  O
  O34      1.0000 0.70845  0.29853  0.80574  Biso   1.000  O
  O35      1.0000 0.32725  0.81213  0.29214  Biso   1.000  O
  O36      1.0000 0.32725  0.67973  0.29214  Biso   1.000  O
  O37      1.0000 0.32725  0.67973  0.80574  Biso   1.000  O
  O38      1.0000 0.32725  0.81213  0.67334  Biso   1.000  O
  O39      1.0000 0.84085  0.29853  0.29214  Biso   1.000  O
  O40      1.0000 0.70845  0.29853  0.29214  Biso   1.000  O
  O41      1.0000 0.70845  0.81213  0.29214  Biso   1.000  O
  O42      1.0000 0.84085  0.67973  0.29214  Biso   1.000  O
  O43      1.0000 0.32725  0.29853  0.80574  Biso   1.000  O
  O44      1.0000 0.32725  0.29853  0.67334  Biso   1.000  O
  O45      1.0000 0.76105  0.24593  0.85834  Biso   1.000  O
  O46      1.0000 0.89345  0.24593  0.72594  Biso   1.000  O
  O47      1.0000 0.27465  0.86473  0.23954  Biso   1.000  O
  O48      1.0000 0.27465  0.73233  0.23954  Biso   1.000  O
  O49      1.0000 0.27465  0.24593  0.72594  Biso   1.000  O
  O50      1.0000 0.27465  0.24593  0.85834  Biso   1.000  O
  O51      1.0000 0.76105  0.86473  0.23954  Biso   1.000  O
  O52      1.0000 0.89345  0.73233  0.23954  Biso   1.000  O
  O53      1.0000 0.89345  0.24593  0.23954  Biso   1.000  O
  O54      1.0000 0.76105  0.24593  0.23954  Biso   1.000  O
  O55      1.0000 0.27465  0.86473  0.72594  Biso   1.000  O
  O56      1.0000 0.27465  0.73233  0.85834  Biso   1.000  O
  O57      1.0000 0.69045  0.38273  0.65534  Biso   1.000  O
  O58      1.0000 0.74715  0.32603  0.71204  Biso   1.000  O
  O59      1.0000 0.41145  0.66173  0.37634  Biso   1.000  O
  O60      1.0000 0.35475  0.71843  0.31964  Biso   1.000  O
  O61      1.0000 0.41145  0.66173  0.65534  Biso   1.000  O
  O62      1.0000 0.35475  0.71843  0.71204  Biso   1.000  O
  O63      1.0000 0.69045  0.38273  0.37634  Biso   1.000  O
  O64      1.0000 0.74715  0.32603  0.31964  Biso   1.000  O
  O65      1.0000 0.69045  0.66173  0.37634  Biso   1.000  O
  O66      1.0000 0.74715  0.71843  0.31964  Biso   1.000  O
  O67      1.0000 0.41145  0.38273  0.65534  Biso   1.000  O
  O68      1.0000 0.35475  0.32603  0.71204  Biso   1.000  O
  O69      1.0000 0.91145  0.16173  0.87634  Biso   1.000  O
  O70      1.0000 0.85475  0.21843  0.81964  Biso   1.000  O
  O71      1.0000 0.19045  0.88273  0.15534  Biso   1.000  O
  O72      1.0000 0.24715  0.82603  0.21204  Biso   1.000  O
  O73      1.0000 0.19045  0.16173  0.87634  Biso   1.000  O
  O74      1.0000 0.24715  0.21843  0.81964  Biso   1.000  O
  O75      1.0000 0.91145  0.88273  0.15534  Biso   1.000  O
  O76      1.0000 0.85475  0.82603  0.21204  Biso   1.000  O
  O77      1.0000 0.91145  0.16173  0.15534  Biso   1.000  O
  O78      1.0000 0.85475  0.21843  0.21204  Biso   1.000  O
  O79      1.0000 0.19045  0.88273  0.87634  Biso   1.000  O
  O80      1.0000 0.24715  0.82603  0.81964  Biso   1.000  O
  O81      1.0000 0.55095  0.52223  0.51584  Biso   1.000  O
  O82      1.0000 0.05095  0.02223  0.01584  Biso   1.000  O
  O83      1.0000 0.73065  0.40613  0.56834  Biso   1.000  O
  O84      1.0000 0.60345  0.40613  0.69554  Biso   1.000  O
  O85      1.0000 0.43485  0.70193  0.39974  Biso   1.000  O
  O86      1.0000 0.43485  0.57473  0.39974  Biso   1.000  O
  O87      1.0000 0.43485  0.57473  0.69554  Biso   1.000  O
  O88      1.0000 0.43485  0.70193  0.56834  Biso   1.000  O
  O89      1.0000 0.73065  0.40613  0.39974  Biso   1.000  O
  O90      1.0000 0.60345  0.40613  0.39974  Biso   1.000  O
  O91      1.0000 0.60345  0.70193  0.39974  Biso   1.000  O
  O92      1.0000 0.73065  0.57473  0.39974  Biso   1.000  O
  O93      1.0000 0.43485  0.40613  0.69554  Biso   1.000  O
  O94      1.0000 0.43485  0.40613  0.56834  Biso   1.000  O
  O95      1.0000 0.87125  0.13833  0.96334  Biso   1.000  O
  O96      1.0000 0.99845  0.13833  0.83614  Biso   1.000  O
  O97      1.0000 0.16705  0.96973  0.13194  Biso   1.000  O
  O98      1.0000 0.16705  0.84253  0.13194  Biso   1.000  O
  O99      1.0000 0.16705  0.13833  0.83614  Biso   1.000  O
  O100     1.0000 0.16705  0.13833  0.96334  Biso   1.000  O
  O101     1.0000 0.87125  0.96973  0.13194  Biso   1.000  O
  O102     1.0000 0.99845  0.84253  0.13194  Biso   1.000  O
  O103     1.0000 0.99845  0.13833  0.13194  Biso   1.000  O
  O104     1.0000 0.87125  0.13833  0.13194  Biso   1.000  O
  O105     1.0000 0.16705  0.96973  0.83614  Biso   1.000  O
