data_image0
_cell_length_a       12.662
_cell_length_b       14.662
_cell_length_c       15.434
_cell_angle_alpha    90
_cell_angle_beta     90
_cell_angle_gamma    90

_symmetry_space_group_name_H-M    "P 1"
_symmetry_int_tables_number       1

loop_
  _symmetry_equiv_pos_as_xyz
  'x, y, z'

loop_
  _atom_site_label
  _atom_site_occupancy
  _atom_site_fract_x
  _atom_site_fract_y
  _atom_site_fract_z
  _atom_site_thermal_displace_type
  _atom_site_B_iso_or_equiv
  _atom_site_type_symbol
  C1       1.0000 0.48863  0.97589  0.04708  Biso   1.000  C
  C2       1.0000 0.29826  0.83100  0.15983  Biso   1.000  C
  C3       1.0000 0.01137  0.02411  0.54708  Biso   1.000  C
  C4       1.0000 0.20174  0.16900  0.65983  Biso   1.000  C
  C5       1.0000 0.51137  0.47589  0.45292  Biso   1.000  C
  C6       1.0000 0.70174  0.33100  0.34017  Biso   1.000  C
  C7       1.0000 0.98863  0.52411  0.95292  Biso   1.000  C
  C8       1.0000 0.79826  0.66900  0.84017  Biso   1.000  C
  C9       1.0000 0.54030  0.68860  0.26290  Biso   1.000  C
  C10      1.0000 0.77010  0.51910  0.17640  Biso   1.000  C
  C11      1.0000 0.69280  0.74580  0.03820  Biso   1.000  C
  C12      1.0000 0.95970  0.31140  0.76290  Biso   1.000  C
  C13      1.0000 0.72990  0.48090  0.67640  Biso   1.000  C
  C14      1.0000 0.80720  0.25420  0.53820  Biso   1.000  C
  C15      1.0000 0.45970  0.18860  0.23710  Biso   1.000  C
  C16      1.0000 0.22990  0.01910  0.32360  Biso   1.000  C
  C17      1.0000 0.30720  0.24580  0.46180  Biso   1.000  C
  C18      1.0000 0.04030  0.81140  0.73710  Biso   1.000  C
  C19      1.0000 0.27010  0.98090  0.82360  Biso   1.000  C
  C20      1.0000 0.19280  0.75420  0.96180  Biso   1.000  C
  C21      1.0000 0.60690  0.72970  0.14960  Biso   1.000  C
  C22      1.0000 0.59210  0.67330  0.22080  Biso   1.000  C
  C23      1.0000 0.65190  0.59480  0.23150  Biso   1.000  C
  C24      1.0000 0.72820  0.57240  0.16930  Biso   1.000  C
  C25      1.0000 0.74300  0.62800  0.09690  Biso   1.000  C
  C26      1.0000 0.68250  0.70740  0.08700  Biso   1.000  C
  C27      1.0000 0.54030  0.81360  0.13910  Biso   1.000  C
  C28      1.0000 0.63510  0.53250  0.30720  Biso   1.000  C
  C29      1.0000 0.82390  0.60480  0.03070  Biso   1.000  C
  C30      1.0000 0.89310  0.27030  0.64960  Biso   1.000  C
  C31      1.0000 0.90790  0.32670  0.72080  Biso   1.000  C
  C32      1.0000 0.84810  0.40520  0.73150  Biso   1.000  C
  C33      1.0000 0.77180  0.42760  0.66930  Biso   1.000  C
  C34      1.0000 0.75700  0.37200  0.59690  Biso   1.000  C
  C35      1.0000 0.81750  0.29260  0.58700  Biso   1.000  C
  C36      1.0000 0.95970  0.18640  0.63910  Biso   1.000  C
  C37      1.0000 0.86490  0.46750  0.80720  Biso   1.000  C
  C38      1.0000 0.67610  0.39520  0.53070  Biso   1.000  C
  C39      1.0000 0.39310  0.22970  0.35040  Biso   1.000  C
  C40      1.0000 0.40790  0.17330  0.27920  Biso   1.000  C
  C41      1.0000 0.34810  0.09480  0.26850  Biso   1.000  C
  C42      1.0000 0.27180  0.07240  0.33070  Biso   1.000  C
  C43      1.0000 0.25700  0.12800  0.40310  Biso   1.000  C
  C44      1.0000 0.31750  0.20740  0.41300  Biso   1.000  C
  C45      1.0000 0.45970  0.31360  0.36090  Biso   1.000  C
  C46      1.0000 0.36490  0.03250  0.19280  Biso   1.000  C
  C47      1.0000 0.17610  0.10480  0.46930  Biso   1.000  C
  C48      1.0000 0.10690  0.77030  0.85040  Biso   1.000  C
  C49      1.0000 0.09210  0.82670  0.77920  Biso   1.000  C
  C50      1.0000 0.15190  0.90520  0.76850  Biso   1.000  C
  C51      1.0000 0.22820  0.92760  0.83070  Biso   1.000  C
  C52      1.0000 0.24300  0.87200  0.90310  Biso   1.000  C
  C53      1.0000 0.18250  0.79260  0.91300  Biso   1.000  C
  C54      1.0000 0.04030  0.68640  0.86090  Biso   1.000  C
  C55      1.0000 0.13510  0.96750  0.69280  Biso   1.000  C
  C56      1.0000 0.32390  0.89520  0.96930  Biso   1.000  C
  C57      1.0000 0.57084  0.87030  0.08211  Biso   1.000  C
  C58      1.0000 0.46136  0.82292  0.18711  Biso   1.000  C
  C59      1.0000 0.55447  0.55002  0.35370  Biso   1.000  C
  C60      1.0000 0.69942  0.47075  0.31993  Biso   1.000  C
  C61      1.0000 0.87521  0.53090  0.04004  Biso   1.000  C
  C62      1.0000 0.84081  0.66027  0.97045  Biso   1.000  C
  C63      1.0000 0.92916  0.12970  0.58211  Biso   1.000  C
  C64      1.0000 0.03864  0.17708  0.68711  Biso   1.000  C
  C65      1.0000 0.94553  0.44998  0.85370  Biso   1.000  C
  C66      1.0000 0.80058  0.52925  0.81993  Biso   1.000  C
  C67      1.0000 0.62479  0.46910  0.54004  Biso   1.000  C
  C68      1.0000 0.65919  0.33973  0.47045  Biso   1.000  C
  C69      1.0000 0.42916  0.37030  0.41789  Biso   1.000  C
  C70      1.0000 0.53864  0.32292  0.31289  Biso   1.000  C
  C71      1.0000 0.44553  0.05002  0.14630  Biso   1.000  C
  C72      1.0000 0.30058  0.97075  0.18007  Biso   1.000  C
  C73      1.0000 0.12479  0.03090  0.45996  Biso   1.000  C
  C74      1.0000 0.15919  0.16027  0.52955  Biso   1.000  C
  C75      1.0000 0.07084  0.62970  0.91789  Biso   1.000  C
  C76      1.0000 0.96136  0.67708  0.81289  Biso   1.000  C
  C77      1.0000 0.05447  0.94998  0.64630  Biso   1.000  C
  C78      1.0000 0.19942  0.02925  0.68007  Biso   1.000  C
  C79      1.0000 0.37521  0.96910  0.95996  Biso   1.000  C
  C80      1.0000 0.34081  0.83973  0.02955  Biso   1.000  C
  O1       1.0000 0.15795  0.61383  0.38875  Biso   1.000  O
  O2       1.0000 0.64621  0.77172  0.72299  Biso   1.000  O
  O3       1.0000 0.74475  0.11629  0.22049  Biso   1.000  O
  O4       1.0000 0.96965  0.46921  0.50661  Biso   1.000  O
  O5       1.0000 0.93305  0.97167  0.10263  Biso   1.000  O
  O6       1.0000 0.45790  0.91634  0.60513  Biso   1.000  O
  O7       1.0000 0.25650  0.27418  0.89124  Biso   1.000  O
  O8       1.0000 0.44480  0.41880  0.00910  Biso   1.000  O
  O9       1.0000 0.98994  0.26407  0.31607  Biso   1.000  O
  O10      1.0000 0.27334  0.68896  0.59717  Biso   1.000  O
  O11      1.0000 0.14111  0.19906  0.09467  Biso   1.000  O
  O12      1.0000 0.70807  0.96481  0.88284  Biso   1.000  O
  O13      1.0000 0.47819  0.12640  0.79567  Biso   1.000  O
  O14      1.0000 0.76159  0.69660  0.51457  Biso   1.000  O
  O15      1.0000 0.21981  0.42566  0.22890  Biso   1.000  O
  O16      1.0000 0.42451  0.62394  0.81856  Biso   1.000  O
  O17      1.0000 0.19464  0.46235  0.73139  Biso   1.000  O
  O18      1.0000 0.68289  0.92321  0.38034  Biso   1.000  O
  O19      1.0000 0.62936  0.19142  0.01706  Biso   1.000  O
  O20      1.0000 0.91276  0.76161  0.29318  Biso   1.000  O
  O21      1.0000 0.32574  0.47210  0.86234  Biso   1.000  O
  O22      1.0000 0.05595  0.21765  0.20303  Biso   1.000  O
  O23      1.0000 0.77111  0.73539  0.46751  Biso   1.000  O
  O24      1.0000 0.42717  0.75287  0.69597  Biso   1.000  O
  O25      1.0000 0.17898  0.37341  0.22243  Biso   1.000  O
  O26      1.0000 0.54420  0.17283  0.90871  Biso   1.000  O
  O27      1.0000 0.62639  0.83487  0.52621  Biso   1.000  O
  O28      1.0000 0.91543  0.63268  0.41577  Biso   1.000  O
  O29      1.0000 0.04152  0.27653  0.27487  Biso   1.000  O
  O30      1.0000 0.13814  0.55068  0.58552  Biso   1.000  O
  O31      1.0000 0.57696  0.97456  0.75189  Biso   1.000  O
  O32      1.0000 0.81400  0.91346  0.24940  Biso   1.000  O
  O33      1.0000 0.37293  0.61148  0.77736  Biso   1.000  O
  O34      1.0000 0.35850  0.67037  0.70552  Biso   1.000  O
  O35      1.0000 0.86118  0.77408  0.33437  Biso   1.000  O
  O36      1.0000 0.98727  0.13514  0.19348  Biso   1.000  O
  O37      1.0000 0.21951  0.57128  0.65219  Biso   1.000  O
  O38      1.0000 0.68319  0.07374  0.96204  Biso   1.000  O
  O39      1.0000 0.79783  0.85035  0.32602  Biso   1.000  O
  O40      1.0000 0.84675  0.71519  0.40621  Biso   1.000  O
  O41      1.0000 0.66723  0.01706  0.88930  Biso   1.000  O
  O42      1.0000 0.23547  0.51461  0.72493  Biso   1.000  O
  O43      1.0000 0.30957  0.53521  0.78572  Biso   1.000  O
  O44      1.0000 0.70776  0.81427  0.45955  Biso   1.000  O
  O45      1.0000 0.19494  0.31673  0.14970  Biso   1.000  O
  O46      1.0000 0.52977  0.11394  0.83687  Biso   1.000  O
  O47      1.0000 0.28286  0.65017  0.64423  Biso   1.000  O
  O48      1.0000 0.76456  0.05314  0.02871  Biso   1.000  O
  O49      1.0000 0.27631  0.33733  0.08303  Biso   1.000  O
  O50      1.0000 0.61984  0.15263  0.97000  Biso   1.000  O
  O51      1.0000 0.10487  0.35281  0.28323  Biso   1.000  O
  O52      1.0000 0.59313  0.03767  0.82851  Biso   1.000  O
  O53      1.0000 0.72372  0.87095  0.38681  Biso   1.000  O
  O54      1.0000 0.08870  0.41592  0.35985  Biso   1.000  O
  O55      1.0000 0.47553  0.25533  0.91826  Biso   1.000  O
  O56      1.0000 0.13159  0.23785  0.14174  Biso   1.000  O
  O57      1.0000 0.12371  0.60656  0.52124  Biso   1.000  O
  O58      1.0000 0.88830  0.57571  0.47358  Biso   1.000  O
  O59      1.0000 0.81819  0.98069  0.01806  Biso   1.000  O
  O60      1.0000 0.40005  0.80985  0.63816  Biso   1.000  O
  O61      1.0000 0.26280  0.41471  0.87269  Biso   1.000  O
  O62      1.0000 0.29074  0.28146  0.02373  Biso   1.000  O
  O63      1.0000 0.15165  0.47330  0.37020  Biso   1.000  O
  O64      1.0000 0.99444  0.62475  0.36681  Biso   1.000  O
  O65      1.0000 0.63990  0.91225  0.74154  Biso   1.000  O
  O66      1.0000 0.40425  0.48777  0.91020  Biso   1.000  O
  O67      1.0000 0.48269  0.76081  0.74493  Biso   1.000  O
  O68      1.0000 0.08451  0.47823  0.59617  Biso   1.000  O
  O69      1.0000 0.01020  0.40024  0.40771  Biso   1.000  O
  O70      1.0000 0.77899  0.10901  0.08801  Biso   1.000  O
  O71      1.0000 0.32994  0.40979  0.09368  Biso   1.000  O
  O72      1.0000 0.89250  0.89778  0.20154  Biso   1.000  O
  O73      1.0000 0.90826  0.12720  0.24243  Biso   1.000  O
  O74      1.0000 0.61196  0.77900  0.59050  Biso   1.000  O
  O75      1.0000 0.01440  0.07816  0.13567  Biso   1.000  O
  O76      1.0000 0.42001  0.26327  0.86930  Biso   1.000  O
  O77      1.0000 0.50265  0.31231  0.97607  Biso   1.000  O
  O78      1.0000 0.75105  0.97576  0.23905  Biso   1.000  O
  O79      1.0000 0.49845  0.99023  0.70403  Biso   1.000  O
