data_image0
_cell_length_a       12.248
_cell_length_b       12.248
_cell_length_c       22.8767
_cell_angle_alpha    90
_cell_angle_beta     90
_cell_angle_gamma    90

_symmetry_space_group_name_H-M    "P 1"
_symmetry_int_tables_number       1

loop_
  _symmetry_equiv_pos_as_xyz
  'x, y, z'

loop_
  _atom_site_label
  _atom_site_occupancy
  _atom_site_fract_x
  _atom_site_fract_y
  _atom_site_fract_z
  _atom_site_thermal_displace_type
  _atom_site_B_iso_or_equiv
  _atom_site_type_symbol
  Cu1      1.0000 0.00000  0.60771  0.00000  Biso   1.000  Cu
  Cu2      1.0000 0.00000  0.39229  0.00000  Biso   1.000  Cu
  Cu3      1.0000 0.39229  0.00000  0.50000  Biso   1.000  Cu
  Cu4      1.0000 0.60771  0.00000  0.50000  Biso   1.000  Cu
  H1       1.0000 0.61110  0.66200  0.80130  Biso   1.000  H
  H2       1.0000 0.74650  0.66230  0.87040  Biso   1.000  H
  H3       1.0000 0.38890  0.33800  0.80130  Biso   1.000  H
  H4       1.0000 0.25350  0.33770  0.87040  Biso   1.000  H
  H5       1.0000 0.33800  0.61110  0.30130  Biso   1.000  H
  H6       1.0000 0.33770  0.74650  0.37040  Biso   1.000  H
  H7       1.0000 0.66200  0.38890  0.30130  Biso   1.000  H
  H8       1.0000 0.66230  0.25350  0.37040  Biso   1.000  H
  H9       1.0000 0.38890  0.66200  0.19870  Biso   1.000  H
  H10      1.0000 0.25350  0.66230  0.12960  Biso   1.000  H
  H11      1.0000 0.61110  0.33800  0.19870  Biso   1.000  H
  H12      1.0000 0.74650  0.33770  0.12960  Biso   1.000  H
  H13      1.0000 0.66200  0.61110  0.69870  Biso   1.000  H
  H14      1.0000 0.66230  0.74650  0.62960  Biso   1.000  H
  H15      1.0000 0.33800  0.38890  0.69870  Biso   1.000  H
  H16      1.0000 0.33770  0.25350  0.62960  Biso   1.000  H
  H17      1.0000 0.38890  0.33800  0.19870  Biso   1.000  H
  H18      1.0000 0.25350  0.33770  0.12960  Biso   1.000  H
  H19      1.0000 0.61110  0.66200  0.19870  Biso   1.000  H
  H20      1.0000 0.74650  0.66230  0.12960  Biso   1.000  H
  H21      1.0000 0.66200  0.38890  0.69870  Biso   1.000  H
  H22      1.0000 0.66230  0.25350  0.62960  Biso   1.000  H
  H23      1.0000 0.33800  0.61110  0.69870  Biso   1.000  H
  H24      1.0000 0.33770  0.74650  0.62960  Biso   1.000  H
  H25      1.0000 0.61110  0.33800  0.80130  Biso   1.000  H
  H26      1.0000 0.74650  0.33770  0.87040  Biso   1.000  H
  H27      1.0000 0.38890  0.66200  0.80130  Biso   1.000  H
  H28      1.0000 0.25350  0.66230  0.87040  Biso   1.000  H
  H29      1.0000 0.33800  0.38890  0.30130  Biso   1.000  H
  H30      1.0000 0.33770  0.25350  0.37040  Biso   1.000  H
  H31      1.0000 0.66200  0.61110  0.30130  Biso   1.000  H
  H32      1.0000 0.66230  0.74650  0.37040  Biso   1.000  H
  C1       1.0000 0.63920  0.59610  0.81475  Biso   1.000  C
  C2       1.0000 0.72000  0.59620  0.85640  Biso   1.000  C
  C3       1.0000 0.36080  0.40390  0.81475  Biso   1.000  C
  C4       1.0000 0.28000  0.40380  0.85640  Biso   1.000  C
  C5       1.0000 0.40390  0.63920  0.31475  Biso   1.000  C
  C6       1.0000 0.40380  0.72000  0.35640  Biso   1.000  C
  C7       1.0000 0.59610  0.36080  0.31475  Biso   1.000  C
  C8       1.0000 0.59620  0.28000  0.35640  Biso   1.000  C
  C9       1.0000 0.36080  0.59610  0.18525  Biso   1.000  C
  C10      1.0000 0.28000  0.59620  0.14360  Biso   1.000  C
  C11      1.0000 0.63920  0.40390  0.18525  Biso   1.000  C
  C12      1.0000 0.72000  0.40380  0.14360  Biso   1.000  C
  C13      1.0000 0.59610  0.63920  0.68525  Biso   1.000  C
  C14      1.0000 0.59620  0.72000  0.64360  Biso   1.000  C
  C15      1.0000 0.40390  0.36080  0.68525  Biso   1.000  C
  C16      1.0000 0.40380  0.28000  0.64360  Biso   1.000  C
  C17      1.0000 0.36080  0.40390  0.18525  Biso   1.000  C
  C18      1.0000 0.28000  0.40380  0.14360  Biso   1.000  C
  C19      1.0000 0.63920  0.59610  0.18525  Biso   1.000  C
  C20      1.0000 0.72000  0.59620  0.14360  Biso   1.000  C
  C21      1.0000 0.59610  0.36080  0.68525  Biso   1.000  C
  C22      1.0000 0.59620  0.28000  0.64360  Biso   1.000  C
  C23      1.0000 0.40390  0.63920  0.68525  Biso   1.000  C
  C24      1.0000 0.40380  0.72000  0.64360  Biso   1.000  C
  C25      1.0000 0.63920  0.40390  0.81475  Biso   1.000  C
  C26      1.0000 0.72000  0.40380  0.85640  Biso   1.000  C
  C27      1.0000 0.36080  0.59610  0.81475  Biso   1.000  C
  C28      1.0000 0.28000  0.59620  0.85640  Biso   1.000  C
  C29      1.0000 0.40390  0.36080  0.31475  Biso   1.000  C
  C30      1.0000 0.40380  0.28000  0.35640  Biso   1.000  C
  C31      1.0000 0.59610  0.63920  0.31475  Biso   1.000  C
  C32      1.0000 0.59620  0.72000  0.35640  Biso   1.000  C
  C33      1.0000 0.59960  0.50000  0.79280  Biso   1.000  C
  C34      1.0000 0.85510  0.50000  0.92360  Biso   1.000  C
  C35      1.0000 0.76250  0.50000  0.87770  Biso   1.000  C
  C36      1.0000 0.40040  0.50000  0.79280  Biso   1.000  C
  C37      1.0000 0.14490  0.50000  0.92360  Biso   1.000  C
  C38      1.0000 0.23750  0.50000  0.87770  Biso   1.000  C
  C39      1.0000 0.50000  0.59960  0.29280  Biso   1.000  C
  C40      1.0000 0.50000  0.85510  0.42360  Biso   1.000  C
  C41      1.0000 0.50000  0.76250  0.37770  Biso   1.000  C
  C42      1.0000 0.50000  0.40040  0.29280  Biso   1.000  C
  C43      1.0000 0.50000  0.14490  0.42360  Biso   1.000  C
  C44      1.0000 0.50000  0.23750  0.37770  Biso   1.000  C
  C45      1.0000 0.40040  0.50000  0.20720  Biso   1.000  C
  C46      1.0000 0.14490  0.50000  0.07640  Biso   1.000  C
  C47      1.0000 0.23750  0.50000  0.12230  Biso   1.000  C
  C48      1.0000 0.59960  0.50000  0.20720  Biso   1.000  C
  C49      1.0000 0.85510  0.50000  0.07640  Biso   1.000  C
  C50      1.0000 0.76250  0.50000  0.12230  Biso   1.000  C
  C51      1.0000 0.50000  0.59960  0.70720  Biso   1.000  C
  C52      1.0000 0.50000  0.85510  0.57640  Biso   1.000  C
  C53      1.0000 0.50000  0.76250  0.62230  Biso   1.000  C
  C54      1.0000 0.50000  0.40040  0.70720  Biso   1.000  C
  C55      1.0000 0.50000  0.14490  0.57640  Biso   1.000  C
  C56      1.0000 0.50000  0.23750  0.62230  Biso   1.000  C
  C57      1.0000 0.50000  0.50000  0.75000  Biso   1.000  C
  C58      1.0000 0.50000  0.50000  0.25000  Biso   1.000  C
  O1       1.0000 0.88690  0.59250  0.94047  Biso   1.000  O
  O2       1.0000 0.11310  0.40750  0.94047  Biso   1.000  O
  O3       1.0000 0.40750  0.88690  0.44047  Biso   1.000  O
  O4       1.0000 0.59250  0.11310  0.44047  Biso   1.000  O
  O5       1.0000 0.11310  0.59250  0.05953  Biso   1.000  O
  O6       1.0000 0.88690  0.40750  0.05953  Biso   1.000  O
  O7       1.0000 0.59250  0.88690  0.55953  Biso   1.000  O
  O8       1.0000 0.40750  0.11310  0.55953  Biso   1.000  O
  O9       1.0000 0.11310  0.40750  0.05953  Biso   1.000  O
  O10      1.0000 0.88690  0.59250  0.05953  Biso   1.000  O
  O11      1.0000 0.59250  0.11310  0.55953  Biso   1.000  O
  O12      1.0000 0.40750  0.88690  0.55953  Biso   1.000  O
  O13      1.0000 0.88690  0.40750  0.94047  Biso   1.000  O
  O14      1.0000 0.11310  0.59250  0.94047  Biso   1.000  O
  O15      1.0000 0.40750  0.11310  0.44047  Biso   1.000  O
  O16      1.0000 0.59250  0.88690  0.44047  Biso   1.000  O
  Cu5      1.0000 0.89811  0.48988  0.61198  Biso   1.000  Cu
  Cu6      1.0000 0.11353  0.48988  0.61198  Biso   1.000  Cu
  Cu7      1.0000 0.50582  0.88217  0.11198  Biso   1.000  Cu
  Cu8      1.0000 0.50582  0.09759  0.11198  Biso   1.000  Cu
  H33      1.0000 0.84382  0.10098  0.41328  Biso   1.000  H
  H34      1.0000 0.84352  0.23638  0.48238  Biso   1.000  H
  H35      1.0000 0.16782  0.87878  0.41328  Biso   1.000  H
  H36      1.0000 0.16812  0.74338  0.48238  Biso   1.000  H
  H37      1.0000 0.89472  0.82788  0.91328  Biso   1.000  H
  H38      1.0000 0.75932  0.82758  0.98238  Biso   1.000  H
  H39      1.0000 0.11692  0.15188  0.91328  Biso   1.000  H
  H40      1.0000 0.25232  0.15218  0.98238  Biso   1.000  H
  H41      1.0000 0.84382  0.87878  0.81068  Biso   1.000  H
  H42      1.0000 0.84352  0.74338  0.74158  Biso   1.000  H
  H43      1.0000 0.16782  0.10098  0.81068  Biso   1.000  H
  H44      1.0000 0.16812  0.23638  0.74158  Biso   1.000  H
  H45      1.0000 0.89472  0.15188  0.31068  Biso   1.000  H
  H46      1.0000 0.75932  0.15218  0.24158  Biso   1.000  H
  H47      1.0000 0.11692  0.82788  0.31068  Biso   1.000  H
  H48      1.0000 0.25232  0.82758  0.24158  Biso   1.000  H
  H49      1.0000 0.16782  0.87878  0.81068  Biso   1.000  H
  H50      1.0000 0.16812  0.74338  0.74158  Biso   1.000  H
  H51      1.0000 0.84382  0.10098  0.81068  Biso   1.000  H
  H52      1.0000 0.84352  0.23638  0.74158  Biso   1.000  H
  H53      1.0000 0.11692  0.15188  0.31068  Biso   1.000  H
  H54      1.0000 0.25232  0.15218  0.24158  Biso   1.000  H
  H55      1.0000 0.89472  0.82788  0.31068  Biso   1.000  H
  H56      1.0000 0.75932  0.82758  0.24158  Biso   1.000  H
  H57      1.0000 0.16782  0.10098  0.41328  Biso   1.000  H
  H58      1.0000 0.16812  0.23638  0.48238  Biso   1.000  H
  H59      1.0000 0.84382  0.87878  0.41328  Biso   1.000  H
  H60      1.0000 0.84352  0.74338  0.48238  Biso   1.000  H
  H61      1.0000 0.11692  0.82788  0.91328  Biso   1.000  H
  H62      1.0000 0.25232  0.82758  0.98238  Biso   1.000  H
  H63      1.0000 0.89472  0.15188  0.91328  Biso   1.000  H
  H64      1.0000 0.75932  0.15218  0.98238  Biso   1.000  H
  C59      1.0000 0.90972  0.12908  0.42673  Biso   1.000  C
  C60      1.0000 0.90962  0.20988  0.46838  Biso   1.000  C
  C61      1.0000 0.10192  0.85068  0.42673  Biso   1.000  C
  C62      1.0000 0.10202  0.76988  0.46838  Biso   1.000  C
  C63      1.0000 0.86662  0.89378  0.92673  Biso   1.000  C
  C64      1.0000 0.78582  0.89368  0.96838  Biso   1.000  C
  C65      1.0000 0.14502  0.08598  0.92673  Biso   1.000  C
  C66      1.0000 0.22582  0.08608  0.96838  Biso   1.000  C
  C67      1.0000 0.90972  0.85068  0.79723  Biso   1.000  C
  C68      1.0000 0.90962  0.76988  0.75558  Biso   1.000  C
  C69      1.0000 0.10192  0.12908  0.79723  Biso   1.000  C
  C70      1.0000 0.10202  0.20988  0.75558  Biso   1.000  C
  C71      1.0000 0.86662  0.08598  0.29723  Biso   1.000  C
  C72      1.0000 0.78582  0.08608  0.25558  Biso   1.000  C
  C73      1.0000 0.14502  0.89378  0.29723  Biso   1.000  C
  C74      1.0000 0.22582  0.89368  0.25558  Biso   1.000  C
  C75      1.0000 0.10192  0.85068  0.79723  Biso   1.000  C
  C76      1.0000 0.10202  0.76988  0.75558  Biso   1.000  C
  C77      1.0000 0.90972  0.12908  0.79723  Biso   1.000  C
  C78      1.0000 0.90962  0.20988  0.75558  Biso   1.000  C
  C79      1.0000 0.14502  0.08598  0.29723  Biso   1.000  C
  C80      1.0000 0.22582  0.08608  0.25558  Biso   1.000  C
  C81      1.0000 0.86662  0.89378  0.29723  Biso   1.000  C
  C82      1.0000 0.78582  0.89368  0.25558  Biso   1.000  C
  C83      1.0000 0.10192  0.12908  0.42673  Biso   1.000  C
  C84      1.0000 0.10202  0.20988  0.46838  Biso   1.000  C
  C85      1.0000 0.90972  0.85068  0.42673  Biso   1.000  C
  C86      1.0000 0.90962  0.76988  0.46838  Biso   1.000  C
  C87      1.0000 0.14502  0.89378  0.92673  Biso   1.000  C
  C88      1.0000 0.22582  0.89368  0.96838  Biso   1.000  C
  C89      1.0000 0.86662  0.08598  0.92673  Biso   1.000  C
  C90      1.0000 0.78582  0.08608  0.96838  Biso   1.000  C
  C91      1.0000 0.00582  0.08948  0.40478  Biso   1.000  C
  C92      1.0000 0.00582  0.34498  0.53558  Biso   1.000  C
  C93      1.0000 0.00582  0.25238  0.48968  Biso   1.000  C
  C94      1.0000 0.00582  0.89028  0.40478  Biso   1.000  C
  C95      1.0000 0.00582  0.63478  0.53558  Biso   1.000  C
  C96      1.0000 0.00582  0.72738  0.48968  Biso   1.000  C
  C97      1.0000 0.90622  0.98988  0.90478  Biso   1.000  C
  C98      1.0000 0.65072  0.98988  0.03558  Biso   1.000  C
  C99      1.0000 0.74332  0.98988  0.98968  Biso   1.000  C
  C100     1.0000 0.10542  0.98988  0.90478  Biso   1.000  C
  C101     1.0000 0.36092  0.98988  0.03558  Biso   1.000  C
  C102     1.0000 0.26832  0.98988  0.98968  Biso   1.000  C
  C103     1.0000 0.00582  0.89028  0.81918  Biso   1.000  C
  C104     1.0000 0.00582  0.63478  0.68838  Biso   1.000  C
  C105     1.0000 0.00582  0.72738  0.73428  Biso   1.000  C
  C106     1.0000 0.00582  0.08948  0.81918  Biso   1.000  C
  C107     1.0000 0.00582  0.34498  0.68838  Biso   1.000  C
  C108     1.0000 0.00582  0.25238  0.73428  Biso   1.000  C
  C109     1.0000 0.90622  0.98988  0.31918  Biso   1.000  C
  C110     1.0000 0.65072  0.98988  0.18838  Biso   1.000  C
  C111     1.0000 0.74332  0.98988  0.23428  Biso   1.000  C
  C112     1.0000 0.10542  0.98988  0.31918  Biso   1.000  C
  C113     1.0000 0.36092  0.98988  0.18838  Biso   1.000  C
  C114     1.0000 0.26832  0.98988  0.23428  Biso   1.000  C
  C115     1.0000 0.00582  0.98988  0.36198  Biso   1.000  C
  C116     1.0000 0.00582  0.98988  0.86198  Biso   1.000  C
  O17      1.0000 0.91332  0.37678  0.55245  Biso   1.000  O
  O18      1.0000 0.09832  0.60298  0.55245  Biso   1.000  O
  O19      1.0000 0.61892  0.89738  0.05245  Biso   1.000  O
  O20      1.0000 0.39272  0.08238  0.05245  Biso   1.000  O
  O21      1.0000 0.91332  0.60298  0.67151  Biso   1.000  O
  O22      1.0000 0.09832  0.37678  0.67151  Biso   1.000  O
  O23      1.0000 0.61892  0.08238  0.17151  Biso   1.000  O
  O24      1.0000 0.39272  0.89738  0.17151  Biso   1.000  O
  O25      1.0000 0.09832  0.60298  0.67151  Biso   1.000  O
  O26      1.0000 0.91332  0.37678  0.67151  Biso   1.000  O
  O27      1.0000 0.39272  0.08238  0.17151  Biso   1.000  O
  O28      1.0000 0.61892  0.89738  0.17151  Biso   1.000  O
  O29      1.0000 0.09832  0.37678  0.55245  Biso   1.000  O
  O30      1.0000 0.91332  0.60298  0.55245  Biso   1.000  O
  O31      1.0000 0.39272  0.89738  0.05245  Biso   1.000  O
