data_image0
_cell_length_a       18.101
_cell_length_b       18.101
_cell_length_c       18.101
_cell_angle_alpha    60.0036
_cell_angle_beta     60.0036
_cell_angle_gamma    60.0001

_symmetry_space_group_name_H-M    "P 1"
_symmetry_int_tables_number       1

loop_
  _symmetry_equiv_pos_as_xyz
  'x, y, z'

loop_
  _atom_site_label
  _atom_site_occupancy
  _atom_site_fract_x
  _atom_site_fract_y
  _atom_site_fract_z
  _atom_site_thermal_displace_type
  _atom_site_B_iso_or_equiv
  _atom_site_type_symbol
  Zn1      1.0000 0.11865  0.29385  0.29380  Biso   1.000  Zn
  Zn2      1.0000 0.70615  0.88135  0.70620  Biso   1.000  Zn
  Zn3      1.0000 0.88135  0.70615  0.70620  Biso   1.000  Zn
  Zn4      1.0000 0.29385  0.11865  0.29380  Biso   1.000  Zn
  Zn5      1.0000 0.29392  0.29392  0.11841  Biso   1.000  Zn
  Zn6      1.0000 0.29367  0.29367  0.29393  Biso   1.000  Zn
  Zn7      1.0000 0.70608  0.70608  0.88159  Biso   1.000  Zn
  Zn8      1.0000 0.70633  0.70633  0.70607  Biso   1.000  Zn
  H1       1.0000 0.15480  0.45200  0.93360  Biso   1.000  H
  H2       1.0000 0.93280  0.45040  0.15620  Biso   1.000  H
  H3       1.0000 0.93080  0.15620  0.44950  Biso   1.000  H
  H4       1.0000 0.54800  0.84520  0.06640  Biso   1.000  H
  H5       1.0000 0.54960  0.06720  0.84380  Biso   1.000  H
  H6       1.0000 0.84380  0.06920  0.55050  Biso   1.000  H
  H7       1.0000 0.84520  0.54800  0.06640  Biso   1.000  H
  H8       1.0000 0.06720  0.54960  0.84380  Biso   1.000  H
  H9       1.0000 0.06920  0.84380  0.55050  Biso   1.000  H
  H10      1.0000 0.45200  0.15480  0.93360  Biso   1.000  H
  H11      1.0000 0.45040  0.93280  0.15620  Biso   1.000  H
  H12      1.0000 0.15620  0.93080  0.44950  Biso   1.000  H
  C1       1.0000 0.12160  0.38280  0.11390  Biso   1.000  C
  C2       1.0000 0.05170  0.44790  0.05410  Biso   1.000  C
  C3       1.0000 0.09080  0.47360  0.96020  Biso   1.000  C
  C4       1.0000 0.96010  0.47210  0.09240  Biso   1.000  C
  C5       1.0000 0.11800  0.38220  0.38200  Biso   1.000  C
  C6       1.0000 0.95710  0.09250  0.47340  Biso   1.000  C
  C7       1.0000 0.61720  0.87840  0.88610  Biso   1.000  C
  C8       1.0000 0.55210  0.94830  0.94590  Biso   1.000  C
  C9       1.0000 0.52640  0.90920  0.03980  Biso   1.000  C
  C10      1.0000 0.52790  0.03990  0.90760  Biso   1.000  C
  C11      1.0000 0.61780  0.88200  0.61800  Biso   1.000  C
  C12      1.0000 0.90750  0.04290  0.52660  Biso   1.000  C
  C13      1.0000 0.87840  0.61720  0.88610  Biso   1.000  C
  C14      1.0000 0.94830  0.55210  0.94590  Biso   1.000  C
  C15      1.0000 0.90920  0.52640  0.03980  Biso   1.000  C
  C16      1.0000 0.03990  0.52790  0.90760  Biso   1.000  C
  C17      1.0000 0.88200  0.61780  0.61800  Biso   1.000  C
  C18      1.0000 0.04290  0.90750  0.52660  Biso   1.000  C
  C19      1.0000 0.38280  0.12160  0.11390  Biso   1.000  C
  C20      1.0000 0.44790  0.05170  0.05410  Biso   1.000  C
  C21      1.0000 0.47360  0.09080  0.96020  Biso   1.000  C
  C22      1.0000 0.47210  0.96010  0.09240  Biso   1.000  C
  C23      1.0000 0.38220  0.11800  0.38200  Biso   1.000  C
  C24      1.0000 0.09250  0.95710  0.47340  Biso   1.000  C
  C25      1.0000 0.38310  0.38310  0.11400  Biso   1.000  C
  C26      1.0000 0.11690  0.11690  0.38110  Biso   1.000  C
  C27      1.0000 0.05150  0.05150  0.45050  Biso   1.000  C
  C28      1.0000 0.61690  0.61690  0.88600  Biso   1.000  C
  C29      1.0000 0.88310  0.88310  0.61890  Biso   1.000  C
  C30      1.0000 0.94850  0.94850  0.54950  Biso   1.000  C
  O1       1.0000 0.19980  0.36640  0.06970  Biso   1.000  O
  O2       1.0000 0.06940  0.36720  0.19730  Biso   1.000  O
  O3       1.0000 0.19960  0.36660  0.36560  Biso   1.000  O
  O4       1.0000 0.06800  0.36680  0.36570  Biso   1.000  O
  O5       1.0000 0.06830  0.19910  0.36730  Biso   1.000  O
  O6       1.0000 0.63360  0.80020  0.93030  Biso   1.000  O
  O7       1.0000 0.63280  0.93060  0.80270  Biso   1.000  O
  O8       1.0000 0.63340  0.80040  0.63440  Biso   1.000  O
  O9       1.0000 0.63320  0.93200  0.63430  Biso   1.000  O
  O10      1.0000 0.80090  0.93170  0.63270  Biso   1.000  O
  O11      1.0000 0.80020  0.63360  0.93030  Biso   1.000  O
  O12      1.0000 0.93060  0.63280  0.80270  Biso   1.000  O
  O13      1.0000 0.80040  0.63340  0.63440  Biso   1.000  O
  O14      1.0000 0.93200  0.63320  0.63430  Biso   1.000  O
  O15      1.0000 0.93170  0.80090  0.63270  Biso   1.000  O
  O16      1.0000 0.36640  0.19980  0.06970  Biso   1.000  O
  O17      1.0000 0.36720  0.06940  0.19730  Biso   1.000  O
  O18      1.0000 0.36660  0.19960  0.36560  Biso   1.000  O
  O19      1.0000 0.36680  0.06800  0.36570  Biso   1.000  O
  O20      1.0000 0.19910  0.06830  0.36730  Biso   1.000  O
  O21      1.0000 0.24870  0.24870  0.25120  Biso   1.000  O
  O22      1.0000 0.36630  0.36630  0.06820  Biso   1.000  O
  O23      1.0000 0.36620  0.36620  0.19910  Biso   1.000  O
  O24      1.0000 0.75130  0.75130  0.74880  Biso   1.000  O
  O25      1.0000 0.63370  0.63370  0.93180  Biso   1.000  O
  O26      1.0000 0.63380  0.63380  0.80090  Biso   1.000  O
  Zn9      1.0000 0.90888  0.14628  0.13532  Biso   1.000  Zn
  Zn10     1.0000 0.49638  0.73378  0.54772  Biso   1.000  Zn
  Zn11     1.0000 0.67158  0.55858  0.54772  Biso   1.000  Zn
  Zn12     1.0000 0.08408  0.97108  0.13532  Biso   1.000  Zn
  Zn13     1.0000 0.08415  0.14635  0.95993  Biso   1.000  Zn
  Zn14     1.0000 0.08390  0.14610  0.13545  Biso   1.000  Zn
  Zn15     1.0000 0.49631  0.55851  0.72311  Biso   1.000  Zn
  Zn16     1.0000 0.49656  0.55876  0.54759  Biso   1.000  Zn
  H13      1.0000 0.94503  0.30443  0.77512  Biso   1.000  H
  H14      1.0000 0.72303  0.30283  0.99772  Biso   1.000  H
  H15      1.0000 0.72103  0.00863  0.29102  Biso   1.000  H
  H16      1.0000 0.33823  0.69763  0.90792  Biso   1.000  H
  H17      1.0000 0.33983  0.91963  0.68532  Biso   1.000  H
  H18      1.0000 0.63403  0.92163  0.39202  Biso   1.000  H
  H19      1.0000 0.63543  0.40043  0.90792  Biso   1.000  H
  H20      1.0000 0.85743  0.40203  0.68532  Biso   1.000  H
  H21      1.0000 0.85943  0.69623  0.39202  Biso   1.000  H
  H22      1.0000 0.24223  0.00723  0.77512  Biso   1.000  H
  H23      1.0000 0.24063  0.78523  0.99772  Biso   1.000  H
  H24      1.0000 0.94643  0.78323  0.29102  Biso   1.000  H
  C31      1.0000 0.91183  0.23523  0.95542  Biso   1.000  C
  C32      1.0000 0.84193  0.30033  0.89562  Biso   1.000  C
  C33      1.0000 0.88103  0.32603  0.80172  Biso   1.000  C
  C34      1.0000 0.75033  0.32453  0.93392  Biso   1.000  C
  C35      1.0000 0.90823  0.23463  0.22352  Biso   1.000  C
  C36      1.0000 0.74733  0.94493  0.31492  Biso   1.000  C
  C37      1.0000 0.40743  0.73083  0.72762  Biso   1.000  C
  C38      1.0000 0.34233  0.80073  0.78742  Biso   1.000  C
  C39      1.0000 0.31663  0.76163  0.88132  Biso   1.000  C
  C40      1.0000 0.31813  0.89233  0.74912  Biso   1.000  C
  C41      1.0000 0.40803  0.73443  0.45952  Biso   1.000  C
  C42      1.0000 0.69773  0.89533  0.36812  Biso   1.000  C
  C43      1.0000 0.66863  0.46963  0.72762  Biso   1.000  C
  C44      1.0000 0.73853  0.40453  0.78742  Biso   1.000  C
  C45      1.0000 0.69943  0.37883  0.88132  Biso   1.000  C
  C46      1.0000 0.83013  0.38033  0.74912  Biso   1.000  C
  C47      1.0000 0.67223  0.47023  0.45952  Biso   1.000  C
  C48      1.0000 0.83313  0.75993  0.36812  Biso   1.000  C
  C49      1.0000 0.17303  0.97403  0.95542  Biso   1.000  C
  C50      1.0000 0.23813  0.90413  0.89562  Biso   1.000  C
  C51      1.0000 0.26383  0.94323  0.80172  Biso   1.000  C
  C52      1.0000 0.26233  0.81253  0.93392  Biso   1.000  C
  C53      1.0000 0.17243  0.97043  0.22352  Biso   1.000  C
  C54      1.0000 0.88273  0.80953  0.31492  Biso   1.000  C
  C55      1.0000 0.17333  0.23553  0.95552  Biso   1.000  C
  C56      1.0000 0.90713  0.96933  0.22262  Biso   1.000  C
  C57      1.0000 0.84173  0.90393  0.29202  Biso   1.000  C
  C58      1.0000 0.40713  0.46933  0.72752  Biso   1.000  C
  C59      1.0000 0.67333  0.73553  0.46042  Biso   1.000  C
  C60      1.0000 0.73873  0.80093  0.39102  Biso   1.000  C
  O27      1.0000 0.99003  0.21883  0.91122  Biso   1.000  O
  O28      1.0000 0.85963  0.21963  0.03882  Biso   1.000  O
  O29      1.0000 0.98983  0.21903  0.20712  Biso   1.000  O
  O30      1.0000 0.85823  0.21923  0.20722  Biso   1.000  O
  O31      1.0000 0.85853  0.05153  0.20882  Biso   1.000  O
  O32      1.0000 0.42383  0.65263  0.77182  Biso   1.000  O
  O33      1.0000 0.42303  0.78303  0.64422  Biso   1.000  O
  O34      1.0000 0.42363  0.65283  0.47592  Biso   1.000  O
  O35      1.0000 0.42343  0.78443  0.47582  Biso   1.000  O
  O36      1.0000 0.59113  0.78413  0.47422  Biso   1.000  O
  O37      1.0000 0.59043  0.48603  0.77182  Biso   1.000  O
  O38      1.0000 0.72083  0.48523  0.64422  Biso   1.000  O
  O39      1.0000 0.59063  0.48583  0.47592  Biso   1.000  O
  O40      1.0000 0.72223  0.48563  0.47582  Biso   1.000  O
  O41      1.0000 0.72193  0.65333  0.47422  Biso   1.000  O
  O42      1.0000 0.15663  0.05223  0.91122  Biso   1.000  O
  O43      1.0000 0.15743  0.92183  0.03882  Biso   1.000  O
  O44      1.0000 0.15683  0.05203  0.20712  Biso   1.000  O
  O45      1.0000 0.15703  0.92043  0.20722  Biso   1.000  O
  O46      1.0000 0.98933  0.92073  0.20882  Biso   1.000  O
  O47      1.0000 0.03893  0.10113  0.09272  Biso   1.000  O
  O48      1.0000 0.15653  0.21873  0.90972  Biso   1.000  O
  O49      1.0000 0.15643  0.21863  0.04062  Biso   1.000  O
  O50      1.0000 0.54153  0.60373  0.59032  Biso   1.000  O
  O51      1.0000 0.42393  0.48613  0.77332  Biso   1.000  O
