data_image0
_cell_length_a       18.2519
_cell_length_b       18.2519
_cell_length_c       18.252
_cell_angle_alpha    60.0037
_cell_angle_beta     60.0037
_cell_angle_gamma    60.0005

_symmetry_space_group_name_H-M    "P 1"
_symmetry_int_tables_number       1

loop_
  _symmetry_equiv_pos_as_xyz
  'x, y, z'

loop_
  _atom_site_label
  _atom_site_occupancy
  _atom_site_fract_x
  _atom_site_fract_y
  _atom_site_fract_z
  _atom_site_thermal_displace_type
  _atom_site_B_iso_or_equiv
  _atom_site_type_symbol
  C1       1.0000 0.88127  0.70639  0.20624  Biso   1.000  C
  C2       1.0000 0.29361  0.11873  0.79376  Biso   1.000  C
  C3       1.0000 0.11873  0.29361  0.79376  Biso   1.000  C
  C4       1.0000 0.70639  0.88127  0.20624  Biso   1.000  C
  C5       1.0000 0.70606  0.70606  0.38133  Biso   1.000  C
  C6       1.0000 0.70624  0.70624  0.20614  Biso   1.000  C
  C7       1.0000 0.29394  0.29394  0.61867  Biso   1.000  C
  C8       1.0000 0.29376  0.29376  0.79386  Biso   1.000  C
  C9       1.0000 0.54630  0.06090  0.34980  Biso   1.000  C
  C10      1.0000 0.54310  0.84610  0.56150  Biso   1.000  C
  C11      1.0000 0.54720  0.05980  0.04610  Biso   1.000  C
  C12      1.0000 0.54320  0.84860  0.04380  Biso   1.000  C
  C13      1.0000 0.06260  0.84660  0.04860  Biso   1.000  C
  C14      1.0000 0.93910  0.45370  0.65020  Biso   1.000  C
  C15      1.0000 0.15390  0.45690  0.43850  Biso   1.000  C
  C16      1.0000 0.94020  0.45280  0.95390  Biso   1.000  C
  C17      1.0000 0.15140  0.45680  0.95620  Biso   1.000  C
  C18      1.0000 0.15340  0.93740  0.95140  Biso   1.000  C
  C19      1.0000 0.45370  0.93910  0.65020  Biso   1.000  C
  C20      1.0000 0.45690  0.15390  0.43850  Biso   1.000  C
  C21      1.0000 0.45280  0.94020  0.95390  Biso   1.000  C
  C22      1.0000 0.45680  0.15140  0.95620  Biso   1.000  C
  C23      1.0000 0.93740  0.15340  0.95140  Biso   1.000  C
  C24      1.0000 0.06090  0.54630  0.34980  Biso   1.000  C
  C25      1.0000 0.84610  0.54310  0.56150  Biso   1.000  C
  C26      1.0000 0.05980  0.54720  0.04610  Biso   1.000  C
  C27      1.0000 0.84860  0.54320  0.04380  Biso   1.000  C
  C28      1.0000 0.84660  0.06260  0.04860  Biso   1.000  C
  C29      1.0000 0.54440  0.54440  0.34770  Biso   1.000  C
  C30      1.0000 0.54330  0.54330  0.56380  Biso   1.000  C
  C31      1.0000 0.45560  0.45560  0.65230  Biso   1.000  C
  C32      1.0000 0.45670  0.45670  0.43620  Biso   1.000  C
  C33      1.0000 0.61220  0.88980  0.38620  Biso   1.000  C
  C34      1.0000 0.55250  0.94790  0.44740  Biso   1.000  C
  C35      1.0000 0.52760  0.03520  0.41200  Biso   1.000  C
  C36      1.0000 0.52640  0.90820  0.53550  Biso   1.000  C
  C37      1.0000 0.61340  0.88660  0.10910  Biso   1.000  C
  C38      1.0000 0.55610  0.94510  0.05380  Biso   1.000  C
  C39      1.0000 0.52920  0.03360  0.02810  Biso   1.000  C
  C40      1.0000 0.52640  0.91060  0.02630  Biso   1.000  C
  C41      1.0000 0.03650  0.90870  0.02850  Biso   1.000  C
  C42      1.0000 0.11020  0.38780  0.61380  Biso   1.000  C
  C43      1.0000 0.05210  0.44750  0.55260  Biso   1.000  C
  C44      1.0000 0.96480  0.47240  0.58800  Biso   1.000  C
  C45      1.0000 0.09180  0.47360  0.46450  Biso   1.000  C
  C46      1.0000 0.11340  0.38660  0.89090  Biso   1.000  C
  C47      1.0000 0.05490  0.44390  0.94620  Biso   1.000  C
  C48      1.0000 0.96640  0.47080  0.97190  Biso   1.000  C
  C49      1.0000 0.08940  0.47360  0.97370  Biso   1.000  C
  C50      1.0000 0.09130  0.96350  0.97150  Biso   1.000  C
  C51      1.0000 0.38780  0.11020  0.61380  Biso   1.000  C
  C52      1.0000 0.44750  0.05210  0.55260  Biso   1.000  C
  C53      1.0000 0.47240  0.96480  0.58800  Biso   1.000  C
  C54      1.0000 0.47360  0.09180  0.46450  Biso   1.000  C
  C55      1.0000 0.38660  0.11340  0.89090  Biso   1.000  C
  C56      1.0000 0.44390  0.05490  0.94620  Biso   1.000  C
  C57      1.0000 0.47080  0.96640  0.97190  Biso   1.000  C
  C58      1.0000 0.47360  0.08940  0.97370  Biso   1.000  C
  C59      1.0000 0.96350  0.09130  0.97150  Biso   1.000  C
  C60      1.0000 0.88980  0.61220  0.38620  Biso   1.000  C
  C61      1.0000 0.94790  0.55250  0.44740  Biso   1.000  C
  C62      1.0000 0.03520  0.52760  0.41200  Biso   1.000  C
  C63      1.0000 0.90820  0.52640  0.53550  Biso   1.000  C
  C64      1.0000 0.88660  0.61340  0.10910  Biso   1.000  C
  C65      1.0000 0.94510  0.55610  0.05380  Biso   1.000  C
  C66      1.0000 0.03360  0.52920  0.02810  Biso   1.000  C
  C67      1.0000 0.91060  0.52640  0.02630  Biso   1.000  C
  C68      1.0000 0.90870  0.03650  0.02850  Biso   1.000  C
  C69      1.0000 0.61140  0.61140  0.39300  Biso   1.000  C
  C70      1.0000 0.55420  0.55420  0.44520  Biso   1.000  C
  C71      1.0000 0.52700  0.52700  0.40970  Biso   1.000  C
  C72      1.0000 0.52580  0.52580  0.53670  Biso   1.000  C
  C73      1.0000 0.88480  0.88480  0.11710  Biso   1.000  C
  C74      1.0000 0.94650  0.94650  0.05370  Biso   1.000  C
  C75      1.0000 0.38860  0.38860  0.60700  Biso   1.000  C
  C76      1.0000 0.44580  0.44580  0.55480  Biso   1.000  C
  C77      1.0000 0.47300  0.47300  0.59030  Biso   1.000  C
  C78      1.0000 0.47420  0.47420  0.46330  Biso   1.000  C
  C79      1.0000 0.11520  0.11520  0.88290  Biso   1.000  C
  C80      1.0000 0.05350  0.05350  0.94630  Biso   1.000  C
  C81      1.0000 0.63160  0.80440  0.43210  Biso   1.000  C
  C82      1.0000 0.63370  0.93370  0.30200  Biso   1.000  C
  C83      1.0000 0.63020  0.80340  0.13560  Biso   1.000  C
  C84      1.0000 0.63310  0.93070  0.13160  Biso   1.000  C
  C85      1.0000 0.93080  0.80240  0.13440  Biso   1.000  C
  C86      1.0000 0.19560  0.36840  0.56790  Biso   1.000  C
  C87      1.0000 0.06630  0.36630  0.69800  Biso   1.000  C
  C88      1.0000 0.19660  0.36980  0.86440  Biso   1.000  C
  C89      1.0000 0.06930  0.36690  0.86840  Biso   1.000  C
  C90      1.0000 0.19760  0.06920  0.86560  Biso   1.000  C
  C91      1.0000 0.36840  0.19560  0.56790  Biso   1.000  C
  C92      1.0000 0.36630  0.06630  0.69800  Biso   1.000  C
  C93      1.0000 0.36980  0.19660  0.86440  Biso   1.000  C
  C94      1.0000 0.36690  0.06930  0.86840  Biso   1.000  C
  C95      1.0000 0.06920  0.19760  0.86560  Biso   1.000  C
  C96      1.0000 0.80440  0.63160  0.43210  Biso   1.000  C
  C97      1.0000 0.93370  0.63370  0.30200  Biso   1.000  C
  C98      1.0000 0.80340  0.63020  0.13560  Biso   1.000  C
  C99      1.0000 0.93070  0.63310  0.13160  Biso   1.000  C
  C100     1.0000 0.80240  0.93080  0.13440  Biso   1.000  C
  C101     1.0000 0.75020  0.75020  0.25030  Biso   1.000  C
  C102     1.0000 0.63260  0.63260  0.43140  Biso   1.000  C
  C103     1.0000 0.63030  0.63030  0.31000  Biso   1.000  C
  C104     1.0000 0.24980  0.24980  0.74970  Biso   1.000  C
  C105     1.0000 0.36740  0.36740  0.56860  Biso   1.000  C
  C106     1.0000 0.36970  0.36970  0.69000  Biso   1.000  C
  O1       1.0000 0.51399  0.50611  0.00000  Biso   1.000  O
  O2       1.0000 0.92614  0.09377  0.41248  Biso   1.000  O
  O3       1.0000 0.92613  0.91889  0.41248  Biso   1.000  O
  O4       1.0000 0.51399  0.33123  0.00000  Biso   1.000  O
  O5       1.0000 0.51352  0.50644  0.82491  Biso   1.000  O
  O6       1.0000 0.33871  0.50626  0.00010  Biso   1.000  O
  O7       1.0000 0.92660  0.91856  0.58757  Biso   1.000  O
  O8       1.0000 0.10141  0.91874  0.41238  Biso   1.000  O
  O9       1.0000 0.67708  0.15160  0.85644  Biso   1.000  O
  O10      1.0000 0.67075  0.36640  0.64474  Biso   1.000  O
  O11      1.0000 0.37322  0.15270  0.16014  Biso   1.000  O
  O12      1.0000 0.15570  0.36390  0.16244  Biso   1.000  O
  O13      1.0000 0.67790  0.36590  0.15764  Biso   1.000  O
  O14      1.0000 0.76305  0.75880  0.55604  Biso   1.000  O
  O15      1.0000 0.76937  0.75560  0.76774  Biso   1.000  O
  O16      1.0000 0.06691  0.75970  0.25234  Biso   1.000  O
  O17      1.0000 0.28441  0.75570  0.25004  Biso   1.000  O
  O18      1.0000 0.76221  0.27510  0.25484  Biso   1.000  O
  O19      1.0000 0.76304  0.27340  0.55604  Biso   1.000  O
  O20      1.0000 0.76937  0.05860  0.76774  Biso   1.000  O
  O21      1.0000 0.06691  0.27230  0.25234  Biso   1.000  O
  O22      1.0000 0.28442  0.06110  0.25004  Biso   1.000  O
  O23      1.0000 0.76222  0.05910  0.25484  Biso   1.000  O
  O24      1.0000 0.67708  0.66620  0.85644  Biso   1.000  O
  O25      1.0000 0.67075  0.66940  0.64474  Biso   1.000  O
  O26      1.0000 0.37321  0.66530  0.16014  Biso   1.000  O
  O27      1.0000 0.15571  0.66930  0.16244  Biso   1.000  O
  O28      1.0000 0.67792  0.14990  0.15764  Biso   1.000  O
  O29      1.0000 0.15658  0.66810  0.85854  Biso   1.000  O
  O30      1.0000 0.37045  0.66920  0.64244  Biso   1.000  O
  O31      1.0000 0.28355  0.75690  0.55394  Biso   1.000  O
  O32      1.0000 0.06967  0.75580  0.77004  Biso   1.000  O
  O33      1.0000 0.60827  0.32270  0.82004  Biso   1.000  O
  O34      1.0000 0.66786  0.26460  0.75884  Biso   1.000  O
  O35      1.0000 0.69488  0.17730  0.79424  Biso   1.000  O
  O36      1.0000 0.69015  0.30430  0.67074  Biso   1.000  O
  O37      1.0000 0.32920  0.32590  0.09714  Biso   1.000  O
  O38      1.0000 0.27510  0.26740  0.15244  Biso   1.000  O
  O39      1.0000 0.31102  0.17890  0.17814  Biso   1.000  O
  O40      1.0000 0.18341  0.30190  0.17994  Biso   1.000  O
  O41      1.0000 0.69381  0.30380  0.17774  Biso   1.000  O
  O42      1.0000 0.83185  0.82470  0.59244  Biso   1.000  O
  O43      1.0000 0.77226  0.76500  0.65364  Biso   1.000  O
  O44      1.0000 0.74525  0.74010  0.61824  Biso   1.000  O
  O45      1.0000 0.74997  0.73890  0.74174  Biso   1.000  O
  O46      1.0000 0.11092  0.82590  0.31534  Biso   1.000  O
  O47      1.0000 0.16501  0.76860  0.26004  Biso   1.000  O
  O48      1.0000 0.12911  0.74170  0.23434  Biso   1.000  O
  O49      1.0000 0.25671  0.73890  0.23254  Biso   1.000  O
  O50      1.0000 0.74630  0.24901  0.23474  Biso   1.000  O
  O51      1.0000 0.83186  0.10230  0.59244  Biso   1.000  O
  O52      1.0000 0.77226  0.16040  0.65364  Biso   1.000  O
  O53      1.0000 0.74525  0.24770  0.61824  Biso   1.000  O
  O54      1.0000 0.74997  0.12070  0.74174  Biso   1.000  O
  O55      1.0000 0.11093  0.09910  0.31534  Biso   1.000  O
  O56      1.0000 0.16502  0.15760  0.26004  Biso   1.000  O
  O57      1.0000 0.12910  0.24610  0.23434  Biso   1.000  O
  O58      1.0000 0.25672  0.12310  0.23254  Biso   1.000  O
  O59      1.0000 0.74632  0.12120  0.23474  Biso   1.000  O
  O60      1.0000 0.60827  0.60030  0.82004  Biso   1.000  O
  O61      1.0000 0.66787  0.66000  0.75884  Biso   1.000  O
  O62      1.0000 0.69487  0.68490  0.79424  Biso   1.000  O
  O63      1.0000 0.69016  0.68610  0.67074  Biso   1.000  O
  O64      1.0000 0.32920  0.59910  0.09714  Biso   1.000  O
  O65      1.0000 0.27511  0.65640  0.15244  Biso   1.000  O
  O66      1.0000 0.31101  0.68330  0.17814  Biso   1.000  O
  O67      1.0000 0.18341  0.68610  0.17994  Biso   1.000  O
  O68      1.0000 0.69382  0.17600  0.17774  Biso   1.000  O
  O69      1.0000 0.33587  0.60110  0.81324  Biso   1.000  O
  O70      1.0000 0.27367  0.65830  0.76104  Biso   1.000  O
  O71      1.0000 0.18377  0.68550  0.79654  Biso   1.000  O
  O72      1.0000 0.30836  0.68670  0.66954  Biso   1.000  O
  O73      1.0000 0.60680  0.32770  0.08914  Biso   1.000  O
  O74      1.0000 0.66680  0.26600  0.15254  Biso   1.000  O
  O75      1.0000 0.10425  0.82390  0.59924  Biso   1.000  O
  O76      1.0000 0.16646  0.76670  0.65144  Biso   1.000  O
  O77      1.0000 0.25635  0.73950  0.61594  Biso   1.000  O
  O78      1.0000 0.13177  0.73830  0.74294  Biso   1.000  O
  O79      1.0000 0.83333  0.09730  0.32334  Biso   1.000  O
  O80      1.0000 0.77332  0.15900  0.25994  Biso   1.000  O
  O81      1.0000 0.58816  0.40810  0.77414  Biso   1.000  O
  O82      1.0000 0.58948  0.27880  0.90424  Biso   1.000  O
  O83      1.0000 0.28930  0.40910  0.07064  Biso   1.000  O
  O84      1.0000 0.41549  0.28180  0.07464  Biso   1.000  O
  O85      1.0000 0.58770  0.41010  0.07184  Biso   1.000  O
  O86      1.0000 0.85196  0.84410  0.63834  Biso   1.000  O
  O87      1.0000 0.85064  0.84620  0.50824  Biso   1.000  O
  O88      1.0000 0.15082  0.84270  0.34184  Biso   1.000  O
  O89      1.0000 0.02462  0.84560  0.33784  Biso   1.000  O
  O90      1.0000 0.85243  0.14330  0.34064  Biso   1.000  O
  O91      1.0000 0.85196  0.01690  0.63834  Biso   1.000  O
  O92      1.0000 0.85065  0.14620  0.50824  Biso   1.000  O
  O93      1.0000 0.15083  0.01590  0.34184  Biso   1.000  O
  O94      1.0000 0.02463  0.14320  0.33784  Biso   1.000  O
  O95      1.0000 0.85243  0.01490  0.34064  Biso   1.000  O
  O96      1.0000 0.58817  0.58090  0.77414  Biso   1.000  O
  O97      1.0000 0.58948  0.57880  0.90424  Biso   1.000  O
  O98      1.0000 0.28930  0.58230  0.07064  Biso   1.000  O
  O99      1.0000 0.41550  0.57940  0.07464  Biso   1.000  O
  O100     1.0000 0.58769  0.28170  0.07184  Biso   1.000  O
  O101     1.0000 0.47078  0.46230  0.95594  Biso   1.000  O
  O102     1.0000 0.41667  0.57990  0.77484  Biso   1.000  O
  O103     1.0000 0.29068  0.58220  0.89624  Biso   1.000  O
  O104     1.0000 0.96934  0.96270  0.45654  Biso   1.000  O
  O105     1.0000 0.02346  0.84510  0.63764  Biso   1.000  O
