data_image0
_cell_length_a       18.2519
_cell_length_b       18.2519
_cell_length_c       18.252
_cell_angle_alpha    60.0037
_cell_angle_beta     60.0037
_cell_angle_gamma    60.0005

_symmetry_space_group_name_H-M    "P 1"
_symmetry_int_tables_number       1

loop_
  _symmetry_equiv_pos_as_xyz
  'x, y, z'

loop_
  _atom_site_label
  _atom_site_occupancy
  _atom_site_fract_x
  _atom_site_fract_y
  _atom_site_fract_z
  _atom_site_thermal_displace_type
  _atom_site_B_iso_or_equiv
  _atom_site_type_symbol
  Zn1      1.0000 0.88088  0.70652  0.20631  Biso   1.000  Zn
  Zn2      1.0000 0.29348  0.11912  0.79369  Biso   1.000  Zn
  Zn3      1.0000 0.11912  0.29348  0.79369  Biso   1.000  Zn
  Zn4      1.0000 0.70652  0.88088  0.20631  Biso   1.000  Zn
  Zn5      1.0000 0.70633  0.70633  0.38080  Biso   1.000  Zn
  Zn6      1.0000 0.70645  0.70645  0.20610  Biso   1.000  Zn
  Zn7      1.0000 0.29367  0.29367  0.61920  Biso   1.000  Zn
  Zn8      1.0000 0.29355  0.29355  0.79390  Biso   1.000  Zn
  H1       1.0000 0.54380  0.06380  0.34770  Biso   1.000  H
  H2       1.0000 0.54070  0.84770  0.56160  Biso   1.000  H
  H3       1.0000 0.54740  0.06180  0.04520  Biso   1.000  H
  H4       1.0000 0.54690  0.84650  0.03990  Biso   1.000  H
  H5       1.0000 0.06290  0.84710  0.04700  Biso   1.000  H
  H6       1.0000 0.93620  0.45620  0.65230  Biso   1.000  H
  H7       1.0000 0.15230  0.45930  0.43840  Biso   1.000  H
  H8       1.0000 0.93820  0.45260  0.95480  Biso   1.000  H
  H9       1.0000 0.15350  0.45310  0.96010  Biso   1.000  H
  H10      1.0000 0.15290  0.93710  0.95300  Biso   1.000  H
  H11      1.0000 0.45620  0.93620  0.65230  Biso   1.000  H
  H12      1.0000 0.45930  0.15230  0.43840  Biso   1.000  H
  H13      1.0000 0.45260  0.93820  0.95480  Biso   1.000  H
  H14      1.0000 0.45310  0.15350  0.96010  Biso   1.000  H
  H15      1.0000 0.93710  0.15290  0.95300  Biso   1.000  H
  H16      1.0000 0.06380  0.54380  0.34770  Biso   1.000  H
  H17      1.0000 0.84770  0.54070  0.56160  Biso   1.000  H
  H18      1.0000 0.06180  0.54740  0.04520  Biso   1.000  H
  H19      1.0000 0.84650  0.54690  0.03990  Biso   1.000  H
  H20      1.0000 0.84710  0.06290  0.04700  Biso   1.000  H
  H21      1.0000 0.54510  0.54510  0.34700  Biso   1.000  H
  H22      1.0000 0.54240  0.54240  0.56550  Biso   1.000  H
  H23      1.0000 0.45490  0.45490  0.65300  Biso   1.000  H
  H24      1.0000 0.45760  0.45760  0.43450  Biso   1.000  H
  C1       1.0000 0.61180  0.89060  0.38640  Biso   1.000  C
  C2       1.0000 0.55300  0.94760  0.44680  Biso   1.000  C
  C3       1.0000 0.52690  0.03730  0.41000  Biso   1.000  C
  C4       1.0000 0.52510  0.90990  0.53600  Biso   1.000  C
  C5       1.0000 0.61220  0.88940  0.10980  Biso   1.000  C
  C6       1.0000 0.55630  0.94510  0.05290  Biso   1.000  C
  C7       1.0000 0.52850  0.03610  0.02770  Biso   1.000  C
  C8       1.0000 0.52810  0.90850  0.02430  Biso   1.000  C
  C9       1.0000 0.03660  0.90920  0.02750  Biso   1.000  C
  C10      1.0000 0.10940  0.38820  0.61360  Biso   1.000  C
  C11      1.0000 0.05240  0.44700  0.55320  Biso   1.000  C
  C12      1.0000 0.96270  0.47310  0.59000  Biso   1.000  C
  C13      1.0000 0.09010  0.47490  0.46400  Biso   1.000  C
  C14      1.0000 0.11060  0.38780  0.89020  Biso   1.000  C
  C15      1.0000 0.05490  0.44370  0.94710  Biso   1.000  C
  C16      1.0000 0.96390  0.47150  0.97230  Biso   1.000  C
  C17      1.0000 0.09150  0.47190  0.97570  Biso   1.000  C
  C18      1.0000 0.09080  0.96340  0.97250  Biso   1.000  C
  C19      1.0000 0.38820  0.10940  0.61360  Biso   1.000  C
  C20      1.0000 0.44700  0.05240  0.55320  Biso   1.000  C
  C21      1.0000 0.47310  0.96270  0.59000  Biso   1.000  C
  C22      1.0000 0.47490  0.09010  0.46400  Biso   1.000  C
  C23      1.0000 0.38780  0.11060  0.89020  Biso   1.000  C
  C24      1.0000 0.44370  0.05490  0.94710  Biso   1.000  C
  C25      1.0000 0.47150  0.96390  0.97230  Biso   1.000  C
  C26      1.0000 0.47190  0.09150  0.97570  Biso   1.000  C
  C27      1.0000 0.96340  0.09080  0.97250  Biso   1.000  C
  C28      1.0000 0.89060  0.61180  0.38640  Biso   1.000  C
  C29      1.0000 0.94760  0.55300  0.44680  Biso   1.000  C
  C30      1.0000 0.03730  0.52690  0.41000  Biso   1.000  C
  C31      1.0000 0.90990  0.52510  0.53600  Biso   1.000  C
  C32      1.0000 0.88940  0.61220  0.10980  Biso   1.000  C
  C33      1.0000 0.94510  0.55630  0.05290  Biso   1.000  C
  C34      1.0000 0.03610  0.52850  0.02770  Biso   1.000  C
  C35      1.0000 0.90850  0.52810  0.02430  Biso   1.000  C
  C36      1.0000 0.90920  0.03660  0.02750  Biso   1.000  C
  C37      1.0000 0.61010  0.61010  0.39300  Biso   1.000  C
  C38      1.0000 0.55400  0.55400  0.44600  Biso   1.000  C
  C39      1.0000 0.52740  0.52740  0.40900  Biso   1.000  C
  C40      1.0000 0.52500  0.52500  0.53800  Biso   1.000  C
  C41      1.0000 0.88650  0.88650  0.11500  Biso   1.000  C
  C42      1.0000 0.94670  0.94670  0.05300  Biso   1.000  C
  C43      1.0000 0.38990  0.38990  0.60700  Biso   1.000  C
  C44      1.0000 0.44600  0.44600  0.55400  Biso   1.000  C
  C45      1.0000 0.47260  0.47260  0.59100  Biso   1.000  C
  C46      1.0000 0.47500  0.47500  0.46200  Biso   1.000  C
  C47      1.0000 0.11350  0.11350  0.88500  Biso   1.000  C
  C48      1.0000 0.05330  0.05330  0.94700  Biso   1.000  C
  O1       1.0000 0.63190  0.80490  0.42990  Biso   1.000  O
  O2       1.0000 0.63430  0.93110  0.30370  Biso   1.000  O
  O3       1.0000 0.63160  0.80380  0.13510  Biso   1.000  O
  O4       1.0000 0.63380  0.92960  0.13230  Biso   1.000  O
  O5       1.0000 0.92890  0.80350  0.13460  Biso   1.000  O
  O6       1.0000 0.19510  0.36810  0.57010  Biso   1.000  O
  O7       1.0000 0.06890  0.36570  0.69630  Biso   1.000  O
  O8       1.0000 0.19620  0.36840  0.86490  Biso   1.000  O
  O9       1.0000 0.07040  0.36620  0.86770  Biso   1.000  O
  O10      1.0000 0.19650  0.07110  0.86540  Biso   1.000  O
  O11      1.0000 0.36810  0.19510  0.57010  Biso   1.000  O
  O12      1.0000 0.36570  0.06890  0.69630  Biso   1.000  O
  O13      1.0000 0.36840  0.19620  0.86490  Biso   1.000  O
  O14      1.0000 0.36620  0.07040  0.86770  Biso   1.000  O
  O15      1.0000 0.07110  0.19650  0.86540  Biso   1.000  O
  O16      1.0000 0.80490  0.63190  0.42990  Biso   1.000  O
  O17      1.0000 0.93110  0.63430  0.30370  Biso   1.000  O
  O18      1.0000 0.80380  0.63160  0.13510  Biso   1.000  O
  O19      1.0000 0.92960  0.63380  0.13230  Biso   1.000  O
  O20      1.0000 0.80350  0.92890  0.13460  Biso   1.000  O
  O21      1.0000 0.74990  0.74990  0.25020  Biso   1.000  O
  O22      1.0000 0.63330  0.63330  0.42890  Biso   1.000  O
  O23      1.0000 0.63170  0.63170  0.30840  Biso   1.000  O
  O24      1.0000 0.25010  0.25010  0.74980  Biso   1.000  O
  O25      1.0000 0.36670  0.36670  0.57110  Biso   1.000  O
  O26      1.0000 0.36830  0.36830  0.69160  Biso   1.000  O
  Zn9      1.0000 0.51399  0.50611  0.00000  Biso   1.000  Zn
  Zn10     1.0000 0.92652  0.09351  0.41262  Biso   1.000  Zn
  Zn11     1.0000 0.92651  0.91915  0.41262  Biso   1.000  Zn
  Zn12     1.0000 0.51399  0.33175  0.00000  Biso   1.000  Zn
  Zn13     1.0000 0.51372  0.50630  0.82551  Biso   1.000  Zn
  Zn14     1.0000 0.33928  0.50618  0.00021  Biso   1.000  Zn
  Zn15     1.0000 0.92678  0.91896  0.58711  Biso   1.000  Zn
  Zn16     1.0000 0.10122  0.91908  0.41241  Biso   1.000  Zn
  H25      1.0000 0.67557  0.14883  0.85861  Biso   1.000  H
  H26      1.0000 0.67024  0.36493  0.64471  Biso   1.000  H
  H27      1.0000 0.37471  0.15083  0.16111  Biso   1.000  H
  H28      1.0000 0.15360  0.36613  0.16641  Biso   1.000  H
  H29      1.0000 0.67729  0.36553  0.15931  Biso   1.000  H
  H30      1.0000 0.76494  0.75643  0.55401  Biso   1.000  H
  H31      1.0000 0.77026  0.75333  0.76791  Biso   1.000  H
  H32      1.0000 0.06580  0.76003  0.25151  Biso   1.000  H
  H33      1.0000 0.28690  0.75953  0.24621  Biso   1.000  H
  H34      1.0000 0.76320  0.27554  0.25331  Biso   1.000  H
  H35      1.0000 0.76493  0.27643  0.55401  Biso   1.000  H
  H36      1.0000 0.77026  0.06033  0.76791  Biso   1.000  H
  H37      1.0000 0.06580  0.27443  0.25151  Biso   1.000  H
  H38      1.0000 0.28691  0.05913  0.24621  Biso   1.000  H
  H39      1.0000 0.76321  0.05973  0.25331  Biso   1.000  H
  H40      1.0000 0.67557  0.66883  0.85861  Biso   1.000  H
  H41      1.0000 0.67024  0.67193  0.64471  Biso   1.000  H
  H42      1.0000 0.37470  0.66523  0.16111  Biso   1.000  H
  H43      1.0000 0.15360  0.66573  0.16641  Biso   1.000  H
  H44      1.0000 0.67731  0.14973  0.15931  Biso   1.000  H
  H45      1.0000 0.15747  0.66753  0.85931  Biso   1.000  H
  H46      1.0000 0.37054  0.67023  0.64081  Biso   1.000  H
  H47      1.0000 0.28304  0.75773  0.55331  Biso   1.000  H
  H48      1.0000 0.06996  0.75503  0.77181  Biso   1.000  H
  C49      1.0000 0.60906  0.32203  0.81991  Biso   1.000  C
  C50      1.0000 0.66765  0.26503  0.75951  Biso   1.000  C
  C51      1.0000 0.69447  0.17533  0.79631  Biso   1.000  C
  C52      1.0000 0.69124  0.30273  0.67031  Biso   1.000  C
  C53      1.0000 0.33169  0.32323  0.09651  Biso   1.000  C
  C54      1.0000 0.27459  0.26753  0.15341  Biso   1.000  C
  C55      1.0000 0.31261  0.17653  0.17861  Biso   1.000  C
  C56      1.0000 0.18120  0.30413  0.18201  Biso   1.000  C
  C57      1.0000 0.69360  0.30343  0.17881  Biso   1.000  C
  C58      1.0000 0.83144  0.82443  0.59271  Biso   1.000  C
  C59      1.0000 0.77285  0.76563  0.65311  Biso   1.000  C
  C60      1.0000 0.74604  0.73953  0.61631  Biso   1.000  C
  C61      1.0000 0.74926  0.73773  0.74231  Biso   1.000  C
  C62      1.0000 0.10881  0.82483  0.31611  Biso   1.000  C
  C63      1.0000 0.16590  0.76893  0.25921  Biso   1.000  C
  C64      1.0000 0.12790  0.74113  0.23401  Biso   1.000  C
  C65      1.0000 0.25930  0.74073  0.23061  Biso   1.000  C
  C66      1.0000 0.74689  0.24923  0.23381  Biso   1.000  C
  C67      1.0000 0.83145  0.10323  0.59271  Biso   1.000  C
  C68      1.0000 0.77285  0.16023  0.65311  Biso   1.000  C
  C69      1.0000 0.74604  0.24993  0.61631  Biso   1.000  C
  C70      1.0000 0.74926  0.12253  0.74231  Biso   1.000  C
  C71      1.0000 0.10882  0.10203  0.31611  Biso   1.000  C
  C72      1.0000 0.16591  0.15773  0.25921  Biso   1.000  C
  C73      1.0000 0.12789  0.24873  0.23401  Biso   1.000  C
  C74      1.0000 0.25931  0.12113  0.23061  Biso   1.000  C
  C75      1.0000 0.74691  0.12183  0.23381  Biso   1.000  C
  C76      1.0000 0.60906  0.60083  0.81991  Biso   1.000  C
  C77      1.0000 0.66766  0.65963  0.75951  Biso   1.000  C
  C78      1.0000 0.69446  0.68573  0.79631  Biso   1.000  C
  C79      1.0000 0.69125  0.68753  0.67031  Biso   1.000  C
  C80      1.0000 0.33169  0.60043  0.09651  Biso   1.000  C
  C81      1.0000 0.27460  0.65633  0.15341  Biso   1.000  C
  C82      1.0000 0.31260  0.68413  0.17861  Biso   1.000  C
  C83      1.0000 0.18120  0.68453  0.18201  Biso   1.000  C
  C84      1.0000 0.69361  0.17603  0.17881  Biso   1.000  C
  C85      1.0000 0.33346  0.60253  0.81331  Biso   1.000  C
  C86      1.0000 0.27426  0.65863  0.76031  Biso   1.000  C
  C87      1.0000 0.18406  0.68523  0.79731  Biso   1.000  C
  C88      1.0000 0.30825  0.68763  0.66831  Biso   1.000  C
  C89      1.0000 0.60829  0.32613  0.09131  Biso   1.000  C
  C90      1.0000 0.66669  0.26593  0.15331  Biso   1.000  C
  C91      1.0000 0.10704  0.82273  0.59931  Biso   1.000  C
  C92      1.0000 0.16625  0.76663  0.65231  Biso   1.000  C
  C93      1.0000 0.25644  0.74003  0.61531  Biso   1.000  C
  C94      1.0000 0.13226  0.73763  0.74431  Biso   1.000  C
  C95      1.0000 0.83222  0.09913  0.32131  Biso   1.000  C
  C96      1.0000 0.77381  0.15933  0.25931  Biso   1.000  C
  O27      1.0000 0.58695  0.40773  0.77641  Biso   1.000  O
  O28      1.0000 0.58937  0.28153  0.90261  Biso   1.000  O
  O29      1.0000 0.29079  0.40883  0.07121  Biso   1.000  O
  O30      1.0000 0.41598  0.28303  0.07401  Biso   1.000  O
  O31      1.0000 0.58729  0.40913  0.07171  Biso   1.000  O
  O32      1.0000 0.85355  0.84453  0.63621  Biso   1.000  O
  O33      1.0000 0.85113  0.84693  0.51001  Biso   1.000  O
  O34      1.0000 0.14971  0.84423  0.34141  Biso   1.000  O
  O35      1.0000 0.02451  0.84643  0.33861  Biso   1.000  O
  O36      1.0000 0.85322  0.14153  0.34091  Biso   1.000  O
  O37      1.0000 0.85355  0.01753  0.63621  Biso   1.000  O
  O38      1.0000 0.85114  0.14373  0.51001  Biso   1.000  O
  O39      1.0000 0.14972  0.01643  0.34141  Biso   1.000  O
  O40      1.0000 0.02452  0.14223  0.33861  Biso   1.000  O
  O41      1.0000 0.85322  0.01613  0.34091  Biso   1.000  O
  O42      1.0000 0.58696  0.58073  0.77641  Biso   1.000  O
  O43      1.0000 0.58937  0.57833  0.90261  Biso   1.000  O
  O44      1.0000 0.29079  0.58103  0.07121  Biso   1.000  O
  O45      1.0000 0.41599  0.57883  0.07401  Biso   1.000  O
  O46      1.0000 0.58728  0.28373  0.07171  Biso   1.000  O
  O47      1.0000 0.47027  0.46273  0.95611  Biso   1.000  O
  O48      1.0000 0.41576  0.57933  0.77741  Biso   1.000  O
  O49      1.0000 0.29207  0.58093  0.89791  Biso   1.000  O
  O50      1.0000 0.97023  0.96253  0.45651  Biso   1.000  O
  O51      1.0000 0.02475  0.84593  0.63521  Biso   1.000  O
