data_image0
_cell_length_a       13.5285
_cell_length_b       13.5285
_cell_length_c       14.277
_cell_angle_alpha    61.7197
_cell_angle_beta     61.7197
_cell_angle_gamma    60

_symmetry_space_group_name_H-M    "P 1"
_symmetry_int_tables_number       1

loop_
  _symmetry_equiv_pos_as_xyz
  'x, y, z'

loop_
  _atom_site_label
  _atom_site_occupancy
  _atom_site_fract_x
  _atom_site_fract_y
  _atom_site_fract_z
  _atom_site_thermal_displace_type
  _atom_site_B_iso_or_equiv
  _atom_site_type_symbol
  Li1      1.0000 0.40725  0.09275  0.75000  Biso   1.000  Li
  Li2      1.0000 0.09275  0.75000  0.75000  Biso   1.000  Li
  Li3      1.0000 0.75000  0.40725  0.75000  Biso   1.000  Li
  Li4      1.0000 0.59275  0.90725  0.25000  Biso   1.000  Li
  Li5      1.0000 0.90725  0.25000  0.25000  Biso   1.000  Li
  Li6      1.0000 0.25000  0.59275  0.25000  Biso   1.000  Li
  Mo1      1.0000 0.00000  0.00000  0.00000  Biso   1.000  Mo
  Mo2      1.0000 0.50000  0.50000  0.50000  Biso   1.000  Mo
  C1       1.0000 0.15797  0.05077  0.89239  Biso   1.000  C
  C2       1.0000 0.05077  0.89887  0.89239  Biso   1.000  C
  C3       1.0000 0.89887  0.15797  0.89239  Biso   1.000  C
  C4       1.0000 0.34203  0.60113  0.60761  Biso   1.000  C
  C5       1.0000 0.44923  0.34203  0.60761  Biso   1.000  C
  C6       1.0000 0.60113  0.44923  0.60761  Biso   1.000  C
  C7       1.0000 0.84203  0.94923  0.10761  Biso   1.000  C
  C8       1.0000 0.94923  0.10113  0.10761  Biso   1.000  C
  C9       1.0000 0.10113  0.84203  0.10761  Biso   1.000  C
  C10      1.0000 0.65797  0.39887  0.39239  Biso   1.000  C
  C11      1.0000 0.55077  0.65797  0.39239  Biso   1.000  C
  C12      1.0000 0.39887  0.55077  0.39239  Biso   1.000  C
  N1       1.0000 0.24243  0.07693  0.83491  Biso   1.000  N
  N2       1.0000 0.07693  0.84573  0.83491  Biso   1.000  N
  N3       1.0000 0.84573  0.24243  0.83491  Biso   1.000  N
  N4       1.0000 0.25757  0.65427  0.66509  Biso   1.000  N
  N5       1.0000 0.42307  0.25757  0.66509  Biso   1.000  N
  N6       1.0000 0.65427  0.42307  0.66509  Biso   1.000  N
  N7       1.0000 0.75757  0.92307  0.16509  Biso   1.000  N
  N8       1.0000 0.92307  0.15427  0.16509  Biso   1.000  N
  N9       1.0000 0.15427  0.75757  0.16509  Biso   1.000  N
  N10      1.0000 0.74243  0.34573  0.33491  Biso   1.000  N
  N11      1.0000 0.57693  0.74243  0.33491  Biso   1.000  N
  N12      1.0000 0.34573  0.57693  0.33491  Biso   1.000  N
  Li7      1.0000 0.58661  0.28563  0.16735  Biso   1.000  Li
  Li8      1.0000 0.27211  0.94288  0.16735  Biso   1.000  Li
  Li9      1.0000 0.92936  0.60013  0.16735  Biso   1.000  Li
  Li10     1.0000 0.77211  0.10013  0.66735  Biso   1.000  Li
  Li11     1.0000 0.08661  0.44288  0.66735  Biso   1.000  Li
  Li12     1.0000 0.42936  0.78563  0.66735  Biso   1.000  Li
  Mo3      1.0000 0.17936  0.19288  0.41735  Biso   1.000  Mo
  Mo4      1.0000 0.67936  0.69288  0.91735  Biso   1.000  Mo
  C13      1.0000 0.33733  0.24365  0.30974  Biso   1.000  C
  C14      1.0000 0.23013  0.09175  0.30974  Biso   1.000  C
  C15      1.0000 0.07823  0.35085  0.30974  Biso   1.000  C
  C16      1.0000 0.52139  0.79401  0.02496  Biso   1.000  C
  C17      1.0000 0.62859  0.53491  0.02496  Biso   1.000  C
  C18      1.0000 0.78049  0.64211  0.02496  Biso   1.000  C
  C19      1.0000 0.02139  0.14211  0.52496  Biso   1.000  C
  C20      1.0000 0.12859  0.29401  0.52496  Biso   1.000  C
  C21      1.0000 0.28049  0.03491  0.52496  Biso   1.000  C
  C22      1.0000 0.83733  0.59175  0.80974  Biso   1.000  C
  C23      1.0000 0.73013  0.85085  0.80974  Biso   1.000  C
  C24      1.0000 0.57823  0.74365  0.80974  Biso   1.000  C
  N13      1.0000 0.42179  0.26981  0.25226  Biso   1.000  N
  N14      1.0000 0.25629  0.03861  0.25226  Biso   1.000  N
  N15      1.0000 0.02509  0.43531  0.25226  Biso   1.000  N
  N16      1.0000 0.43693  0.84715  0.08244  Biso   1.000  N
  N17      1.0000 0.60243  0.45045  0.08244  Biso   1.000  N
  N18      1.0000 0.83363  0.61595  0.08244  Biso   1.000  N
  N19      1.0000 0.93693  0.11595  0.58244  Biso   1.000  N
  N20      1.0000 0.10243  0.34715  0.58244  Biso   1.000  N
  N21      1.0000 0.33363  0.95045  0.58244  Biso   1.000  N
  N22      1.0000 0.92179  0.53861  0.75226  Biso   1.000  N
  N23      1.0000 0.75629  0.93531  0.75226  Biso   1.000  N
