data_image0
_cell_length_a       17.3335
_cell_length_b       17.3335
_cell_length_c       23.8297
_cell_angle_alpha    68.6727
_cell_angle_beta     68.6727
_cell_angle_gamma    89.9999

_symmetry_space_group_name_H-M    "P 1"
_symmetry_int_tables_number       1

loop_
  _symmetry_equiv_pos_as_xyz
  'x, y, z'

loop_
  _atom_site_label
  _atom_site_occupancy
  _atom_site_fract_x
  _atom_site_fract_y
  _atom_site_fract_z
  _atom_site_thermal_displace_type
  _atom_site_B_iso_or_equiv
  _atom_site_type_symbol
  C1       1.0000 0.77857  0.02857  0.94286  Biso   1.000  C
  C2       1.0000 0.02857  0.77857  0.44286  Biso   1.000  C
  C3       1.0000 0.75780  0.20820  0.91080  Biso   1.000  C
  C4       1.0000 0.72690  0.31820  0.83800  Biso   1.000  C
  C5       1.0000 0.71110  0.16890  0.74540  Biso   1.000  C
  C6       1.0000 0.74190  0.06200  0.82180  Biso   1.000  C
  C7       1.0000 0.64370  0.34650  0.75400  Biso   1.000  C
  C8       1.0000 0.68590  0.30690  0.70120  Biso   1.000  C
  C9       1.0000 0.81470  0.38630  0.66680  Biso   1.000  C
  C10      1.0000 0.77630  0.42280  0.72240  Biso   1.000  C
  C11      1.0000 0.71740  0.45200  0.61920  Biso   1.000  C
  C12      1.0000 0.68860  0.49420  0.67160  Biso   1.000  C
  C13      1.0000 0.76120  0.63480  0.63760  Biso   1.000  C
  C14      1.0000 0.87000  0.74170  0.56480  Biso   1.000  C
  C15      1.0000 0.98110  0.59610  0.47560  Biso   1.000  C
  C16      1.0000 0.87540  0.48690  0.54620  Biso   1.000  C
  C17      1.0000 0.83140  0.88100  0.91080  Biso   1.000  C
  C18      1.0000 0.93510  0.84380  0.83800  Biso   1.000  C
  C19      1.0000 0.04350  0.08570  0.74540  Biso   1.000  C
  C20      1.0000 0.93630  0.11620  0.82180  Biso   1.000  C
  C21      1.0000 0.10230  0.89950  0.75400  Biso   1.000  C
  C22      1.0000 0.11290  0.99190  0.70120  Biso   1.000  C
  C23      1.0000 0.01850  0.94690  0.66680  Biso   1.000  C
  C24      1.0000 0.00130  0.85480  0.72240  Biso   1.000  C
  C25      1.0000 0.16340  0.92880  0.61920  Biso   1.000  C
  C26      1.0000 0.13980  0.83420  0.67160  Biso   1.000  C
  C27      1.0000 0.10120  0.72760  0.63760  Biso   1.000  C
  C28      1.0000 0.06520  0.69350  0.56480  Biso   1.000  C
  C29      1.0000 0.04330  0.92830  0.47560  Biso   1.000  C
  C30      1.0000 0.07840  0.96690  0.54620  Biso   1.000  C
  C31      1.0000 0.20820  0.83140  0.41080  Biso   1.000  C
  C32      1.0000 0.31820  0.93510  0.33800  Biso   1.000  C
  C33      1.0000 0.16890  0.04350  0.24540  Biso   1.000  C
  C34      1.0000 0.06200  0.93630  0.32180  Biso   1.000  C
  C35      1.0000 0.34650  0.10230  0.25400  Biso   1.000  C
  C36      1.0000 0.30690  0.11290  0.20120  Biso   1.000  C
  C37      1.0000 0.38630  0.01850  0.16680  Biso   1.000  C
  C38      1.0000 0.42280  0.00130  0.22240  Biso   1.000  C
  C39      1.0000 0.45200  0.16340  0.11920  Biso   1.000  C
  C40      1.0000 0.49420  0.13980  0.17160  Biso   1.000  C
  C41      1.0000 0.63480  0.10120  0.13760  Biso   1.000  C
  C42      1.0000 0.74170  0.06520  0.06480  Biso   1.000  C
  C43      1.0000 0.59610  0.04330  0.97560  Biso   1.000  C
  C44      1.0000 0.48690  0.07840  0.04620  Biso   1.000  C
  C45      1.0000 0.88100  0.75780  0.41080  Biso   1.000  C
  C46      1.0000 0.84380  0.72690  0.33800  Biso   1.000  C
  C47      1.0000 0.08570  0.71110  0.24540  Biso   1.000  C
  C48      1.0000 0.11620  0.74190  0.32180  Biso   1.000  C
  C49      1.0000 0.89950  0.64370  0.25400  Biso   1.000  C
  C50      1.0000 0.99190  0.68590  0.20120  Biso   1.000  C
  C51      1.0000 0.94690  0.81470  0.16680  Biso   1.000  C
  C52      1.0000 0.85480  0.77630  0.22240  Biso   1.000  C
  C53      1.0000 0.92880  0.71740  0.11920  Biso   1.000  C
  C54      1.0000 0.83420  0.68860  0.17160  Biso   1.000  C
  C55      1.0000 0.72760  0.76120  0.13760  Biso   1.000  C
  C56      1.0000 0.69350  0.87000  0.06480  Biso   1.000  C
  C57      1.0000 0.92830  0.98110  0.97560  Biso   1.000  C
  C58      1.0000 0.96690  0.87540  0.04620  Biso   1.000  C
  C59      1.0000 0.74850  0.20040  0.87620  Biso   1.000  C
  C60      1.0000 0.72960  0.26620  0.83300  Biso   1.000  C
  C61      1.0000 0.71410  0.25790  0.78180  Biso   1.000  C
  C62      1.0000 0.72030  0.17890  0.77940  Biso   1.000  C
  C63      1.0000 0.73940  0.11540  0.82440  Biso   1.000  C
  C64      1.0000 0.69610  0.32820  0.73160  Biso   1.000  C
  C65      1.0000 0.76330  0.40280  0.69240  Biso   1.000  C
  C66      1.0000 0.73670  0.47440  0.64540  Biso   1.000  C
  C67      1.0000 0.80459  0.54709  0.60002  Biso   1.000  C
  C68      1.0000 0.80590  0.62560  0.60420  Biso   1.000  C
  C69      1.0000 0.87110  0.68920  0.56060  Biso   1.000  C
  C70      1.0000 0.93550  0.60430  0.50900  Biso   1.000  C
  C71      1.0000 0.87240  0.53900  0.55100  Biso   1.000  C
  C72      1.0000 0.87530  0.92340  0.87620  Biso   1.000  C
  C73      1.0000 0.93740  0.90080  0.83300  Biso   1.000  C
  C74      1.0000 0.00410  0.96030  0.78180  Biso   1.000  C
  C75      1.0000 0.00030  0.04170  0.77940  Biso   1.000  C
  C76      1.0000 0.93620  0.06020  0.82440  Biso   1.000  C
  C77      1.0000 0.07230  0.94020  0.73160  Biso   1.000  C
  C78      1.0000 0.04430  0.90480  0.69240  Biso   1.000  C
  C79      1.0000 0.11790  0.88020  0.64540  Biso   1.000  C
  C80      1.0000 0.09539  0.85289  0.60002  Biso   1.000  C
  C81      1.0000 0.08990  0.77020  0.60420  Biso   1.000  C
  C82      1.0000 0.06830  0.75020  0.56060  Biso   1.000  C
  C83      1.0000 0.05550  0.88670  0.50900  Biso   1.000  C
  C84      1.0000 0.07660  0.91000  0.55100  Biso   1.000  C
  C85      1.0000 0.20040  0.87530  0.37620  Biso   1.000  C
  C86      1.0000 0.26620  0.93740  0.33300  Biso   1.000  C
  C87      1.0000 0.25790  0.00410  0.28180  Biso   1.000  C
  C88      1.0000 0.17890  0.00030  0.27940  Biso   1.000  C
  C89      1.0000 0.11540  0.93620  0.32440  Biso   1.000  C
  C90      1.0000 0.32820  0.07230  0.23160  Biso   1.000  C
  C91      1.0000 0.40280  0.04430  0.19240  Biso   1.000  C
  C92      1.0000 0.47440  0.11790  0.14540  Biso   1.000  C
  C93      1.0000 0.54709  0.09539  0.10002  Biso   1.000  C
  C94      1.0000 0.62560  0.08990  0.10420  Biso   1.000  C
  C95      1.0000 0.68920  0.06830  0.06060  Biso   1.000  C
  C96      1.0000 0.60430  0.05550  0.00900  Biso   1.000  C
  C97      1.0000 0.53900  0.07660  0.05100  Biso   1.000  C
  C98      1.0000 0.92340  0.74850  0.37620  Biso   1.000  C
  C99      1.0000 0.90080  0.72960  0.33300  Biso   1.000  C
  C100     1.0000 0.96030  0.71410  0.28180  Biso   1.000  C
  C101     1.0000 0.04170  0.72030  0.27940  Biso   1.000  C
  C102     1.0000 0.06020  0.73940  0.32440  Biso   1.000  C
  C103     1.0000 0.94020  0.69610  0.23160  Biso   1.000  C
  C104     1.0000 0.90480  0.76330  0.19240  Biso   1.000  C
  C105     1.0000 0.88020  0.73670  0.14540  Biso   1.000  C
  C106     1.0000 0.85289  0.80459  0.10002  Biso   1.000  C
  C107     1.0000 0.77020  0.80590  0.10420  Biso   1.000  C
  C108     1.0000 0.75020  0.87110  0.06060  Biso   1.000  C
  C109     1.0000 0.88670  0.93550  0.00900  Biso   1.000  C
  C110     1.0000 0.91000  0.87240  0.05100  Biso   1.000  C
  C111     1.0000 0.75440  0.12670  0.87260  Biso   1.000  C
  C112     1.0000 0.93599  0.68069  0.51262  Biso   1.000  C
  C113     1.0000 0.87300  0.00070  0.87260  Biso   1.000  C
  C114     1.0000 0.05139  0.80669  0.51262  Biso   1.000  C
  C115     1.0000 0.12670  0.87300  0.37260  Biso   1.000  C
  C116     1.0000 0.68069  0.05139  0.01262  Biso   1.000  C
  C117     1.0000 0.00070  0.75440  0.37260  Biso   1.000  C
  C118     1.0000 0.80669  0.93599  0.01262  Biso   1.000  C
  C119     1.0000 0.67004  0.91714  0.94326  Biso   1.000  C
  C120     1.0000 0.88670  0.13960  0.94326  Biso   1.000  C
  C121     1.0000 0.91714  0.88670  0.44326  Biso   1.000  C
  C122     1.0000 0.13960  0.67004  0.44326  Biso   1.000  C
  O1       1.0000 0.52979  0.76056  0.44040  Biso   1.000  O
  O2       1.0000 0.27979  0.01056  0.94040  Biso   1.000  O
  O3       1.0000 0.55056  0.90813  0.47246  Biso   1.000  O
  O4       1.0000 0.58146  0.94533  0.54526  Biso   1.000  O
  O5       1.0000 0.59726  0.70343  0.63786  Biso   1.000  O
  O6       1.0000 0.56646  0.67293  0.56146  Biso   1.000  O
  O7       1.0000 0.66466  0.88963  0.62926  Biso   1.000  O
  O8       1.0000 0.62246  0.79723  0.68206  Biso   1.000  O
  O9       1.0000 0.49366  0.84223  0.71646  Biso   1.000  O
  O10      1.0000 0.53206  0.93433  0.66086  Biso   1.000  O
  O11      1.0000 0.59096  0.86033  0.76406  Biso   1.000  O
  O12      1.0000 0.61976  0.95493  0.71166  Biso   1.000  O
  O13      1.0000 0.54716  0.06153  0.74566  Biso   1.000  O
  O14      1.0000 0.43836  0.09563  0.81846  Biso   1.000  O
  O15      1.0000 0.32726  0.86083  0.90766  Biso   1.000  O
  O16      1.0000 0.43296  0.82223  0.83706  Biso   1.000  O
  O17      1.0000 0.47696  0.58093  0.47246  Biso   1.000  O
  O18      1.0000 0.37326  0.47093  0.54526  Biso   1.000  O
  O19      1.0000 0.26486  0.62023  0.63786  Biso   1.000  O
  O20      1.0000 0.37206  0.72713  0.56146  Biso   1.000  O
  O21      1.0000 0.20606  0.44263  0.62926  Biso   1.000  O
  O22      1.0000 0.19546  0.48223  0.68206  Biso   1.000  O
  O23      1.0000 0.28986  0.40283  0.71646  Biso   1.000  O
  O24      1.0000 0.30706  0.36633  0.66086  Biso   1.000  O
  O25      1.0000 0.14496  0.33713  0.76406  Biso   1.000  O
  O26      1.0000 0.16856  0.29493  0.71166  Biso   1.000  O
  O27      1.0000 0.20716  0.15433  0.74566  Biso   1.000  O
  O28      1.0000 0.24316  0.04743  0.81846  Biso   1.000  O
  O29      1.0000 0.26506  0.19303  0.90766  Biso   1.000  O
  O30      1.0000 0.22996  0.30223  0.83706  Biso   1.000  O
  O31      1.0000 0.10016  0.03133  0.97246  Biso   1.000  O
  O32      1.0000 0.99016  0.06223  0.04526  Biso   1.000  O
  O33      1.0000 0.13946  0.07803  0.13786  Biso   1.000  O
  O34      1.0000 0.24636  0.04723  0.06146  Biso   1.000  O
  O35      1.0000 0.96186  0.14543  0.12926  Biso   1.000  O
  O36      1.0000 0.00146  0.10323  0.18206  Biso   1.000  O
  O37      1.0000 0.92206  0.97443  0.21646  Biso   1.000  O
  O38      1.0000 0.88556  0.01283  0.16086  Biso   1.000  O
  O39      1.0000 0.85636  0.07173  0.26406  Biso   1.000  O
  O40      1.0000 0.81416  0.10053  0.21166  Biso   1.000  O
  O41      1.0000 0.67356  0.02793  0.24566  Biso   1.000  O
  O42      1.0000 0.56666  0.91913  0.31846  Biso   1.000  O
  O43      1.0000 0.71226  0.80803  0.40766  Biso   1.000  O
  O44      1.0000 0.82146  0.91373  0.33706  Biso   1.000  O
  O45      1.0000 0.42736  0.95773  0.97246  Biso   1.000  O
  O46      1.0000 0.46456  0.85403  0.04526  Biso   1.000  O
  O47      1.0000 0.22266  0.74563  0.13786  Biso   1.000  O
  O48      1.0000 0.19216  0.85283  0.06146  Biso   1.000  O
  O49      1.0000 0.40886  0.68683  0.12926  Biso   1.000  O
  O50      1.0000 0.31646  0.67623  0.18206  Biso   1.000  O
  O51      1.0000 0.36146  0.77063  0.21646  Biso   1.000  O
  O52      1.0000 0.45356  0.78783  0.16086  Biso   1.000  O
  O53      1.0000 0.37956  0.62573  0.26406  Biso   1.000  O
  O54      1.0000 0.47416  0.64933  0.21166  Biso   1.000  O
  O55      1.0000 0.58076  0.68793  0.24566  Biso   1.000  O
  O56      1.0000 0.61486  0.72393  0.31846  Biso   1.000  O
  O57      1.0000 0.38006  0.74583  0.40766  Biso   1.000  O
  O58      1.0000 0.34146  0.71073  0.33706  Biso   1.000  O
  O59      1.0000 0.55986  0.86573  0.50706  Biso   1.000  O
  O60      1.0000 0.57876  0.88833  0.55026  Biso   1.000  O
  O61      1.0000 0.59426  0.82883  0.60146  Biso   1.000  O
  O62      1.0000 0.58806  0.74743  0.60386  Biso   1.000  O
  O63      1.0000 0.56896  0.72893  0.55886  Biso   1.000  O
  O64      1.0000 0.61226  0.84893  0.65166  Biso   1.000  O
  O65      1.0000 0.54506  0.88433  0.69086  Biso   1.000  O
  O66      1.0000 0.57166  0.90893  0.73786  Biso   1.000  O
  O67      1.0000 0.50377  0.93624  0.78324  Biso   1.000  O
  O68      1.0000 0.50246  0.01893  0.77906  Biso   1.000  O
  O69      1.0000 0.43726  0.03893  0.82266  Biso   1.000  O
  O70      1.0000 0.37286  0.90243  0.87426  Biso   1.000  O
  O71      1.0000 0.43596  0.87913  0.83226  Biso   1.000  O
  O72      1.0000 0.43306  0.58873  0.50706  Biso   1.000  O
  O73      1.0000 0.37096  0.52293  0.55026  Biso   1.000  O
  O74      1.0000 0.30426  0.53123  0.60146  Biso   1.000  O
  O75      1.0000 0.30806  0.61023  0.60386  Biso   1.000  O
  O76      1.0000 0.37216  0.67373  0.55886  Biso   1.000  O
  O77      1.0000 0.23606  0.46093  0.65166  Biso   1.000  O
  O78      1.0000 0.26406  0.38633  0.69086  Biso   1.000  O
  O79      1.0000 0.19046  0.31473  0.73786  Biso   1.000  O
  O80      1.0000 0.21297  0.24204  0.78324  Biso   1.000  O
  O81      1.0000 0.21846  0.16353  0.77906  Biso   1.000  O
  O82      1.0000 0.24006  0.09993  0.82266  Biso   1.000  O
  O83      1.0000 0.25286  0.18483  0.87426  Biso   1.000  O
  O84      1.0000 0.23176  0.25013  0.83226  Biso   1.000  O
  O85      1.0000 0.10796  0.04063  0.00706  Biso   1.000  O
  O86      1.0000 0.04216  0.05953  0.05026  Biso   1.000  O
  O87      1.0000 0.05046  0.07503  0.10146  Biso   1.000  O
  O88      1.0000 0.12946  0.06883  0.10386  Biso   1.000  O
  O89      1.0000 0.19296  0.04973  0.05886  Biso   1.000  O
  O90      1.0000 0.98016  0.09303  0.15166  Biso   1.000  O
  O91      1.0000 0.90556  0.02583  0.19086  Biso   1.000  O
  O92      1.0000 0.83396  0.05243  0.23786  Biso   1.000  O
  O93      1.0000 0.76127  0.98454  0.28324  Biso   1.000  O
  O94      1.0000 0.68276  0.98323  0.27906  Biso   1.000  O
  O95      1.0000 0.61916  0.91803  0.32266  Biso   1.000  O
  O96      1.0000 0.70406  0.85363  0.37426  Biso   1.000  O
  O97      1.0000 0.76936  0.91673  0.33226  Biso   1.000  O
  O98      1.0000 0.38496  0.91383  0.00706  Biso   1.000  O
  O99      1.0000 0.40756  0.85173  0.05026  Biso   1.000  O
  O100     1.0000 0.34806  0.78503  0.10146  Biso   1.000  O
  O101     1.0000 0.26666  0.78883  0.10386  Biso   1.000  O
  O102     1.0000 0.24816  0.85293  0.05886  Biso   1.000  O
  O103     1.0000 0.36816  0.71683  0.15166  Biso   1.000  O
  O104     1.0000 0.40356  0.74483  0.19086  Biso   1.000  O
  O105     1.0000 0.42816  0.67123  0.23786  Biso   1.000  O
  O106     1.0000 0.45547  0.69374  0.28324  Biso   1.000  O
  O107     1.0000 0.53816  0.69923  0.27906  Biso   1.000  O
  O108     1.0000 0.55816  0.72083  0.32266  Biso   1.000  O
  O109     1.0000 0.42166  0.73363  0.37426  Biso   1.000  O
  O110     1.0000 0.39836  0.71253  0.33226  Biso   1.000  O
  O111     1.0000 0.55396  0.78843  0.51066  Biso   1.000  O
  O112     1.0000 0.37237  0.98244  0.87064  Biso   1.000  O
  O113     1.0000 0.43536  0.66243  0.51066  Biso   1.000  O
  O114     1.0000 0.25697  0.10844  0.87064  Biso   1.000  O
  O115     1.0000 0.18166  0.03473  0.01066  Biso   1.000  O
  O116     1.0000 0.62767  0.85314  0.37064  Biso   1.000  O
  O117     1.0000 0.30766  0.91613  0.01066  Biso   1.000  O
  O118     1.0000 0.50167  0.73774  0.37064  Biso   1.000  O
  O119     1.0000 0.63832  0.64953  0.44000  Biso   1.000  O
  O120     1.0000 0.42166  0.87199  0.44000  Biso   1.000  O
  O121     1.0000 0.39122  0.11909  0.94000  Biso   1.000  O
