data_image0
_cell_length_a       17.5757
_cell_length_b       17.5757
_cell_length_c       17.5757
_cell_angle_alpha    90.9296
_cell_angle_beta     90.9296
_cell_angle_gamma    90.9296

_symmetry_space_group_name_H-M    "P 1"
_symmetry_int_tables_number       1

loop_
  _symmetry_equiv_pos_as_xyz
  'x, y, z'

loop_
  _atom_site_label
  _atom_site_occupancy
  _atom_site_fract_x
  _atom_site_fract_y
  _atom_site_fract_z
  _atom_site_thermal_displace_type
  _atom_site_B_iso_or_equiv
  _atom_site_type_symbol
  Ce1      1.0000 0.36705  0.36705  0.36705  Biso   1.000  Ce
  Ce2      1.0000 0.63295  0.63295  0.63295  Biso   1.000  Ce
  Ce3      1.0000 0.50000  0.50000  0.50000  Biso   1.000  Ce
  H1       1.0000 0.38200  0.53620  0.23280  Biso   1.000  H
  H2       1.0000 0.38110  0.57350  0.10670  Biso   1.000  H
  H3       1.0000 0.61070  0.54110  0.23710  Biso   1.000  H
  H4       1.0000 0.40260  0.61430  0.96730  Biso   1.000  H
  H5       1.0000 0.66330  0.62560  0.91640  Biso   1.000  H
  H6       1.0000 0.44560  0.63680  0.84750  Biso   1.000  H
  H7       1.0000 0.23280  0.38200  0.53620  Biso   1.000  H
  H8       1.0000 0.10670  0.38110  0.57350  Biso   1.000  H
  H9       1.0000 0.23710  0.61070  0.54110  Biso   1.000  H
  H10      1.0000 0.96730  0.40260  0.61430  Biso   1.000  H
  H11      1.0000 0.91640  0.66330  0.62560  Biso   1.000  H
  H12      1.0000 0.84750  0.44560  0.63680  Biso   1.000  H
  H13      1.0000 0.53620  0.23280  0.38200  Biso   1.000  H
  H14      1.0000 0.57350  0.10670  0.38110  Biso   1.000  H
  H15      1.0000 0.54110  0.23710  0.61070  Biso   1.000  H
  H16      1.0000 0.61430  0.96730  0.40260  Biso   1.000  H
  H17      1.0000 0.62560  0.91640  0.66330  Biso   1.000  H
  H18      1.0000 0.63680  0.84750  0.44560  Biso   1.000  H
  H19      1.0000 0.61800  0.46380  0.76720  Biso   1.000  H
  H20      1.0000 0.61890  0.42650  0.89330  Biso   1.000  H
  H21      1.0000 0.38930  0.45890  0.76290  Biso   1.000  H
  H22      1.0000 0.59740  0.38570  0.03270  Biso   1.000  H
  H23      1.0000 0.33670  0.37440  0.08360  Biso   1.000  H
  H24      1.0000 0.55440  0.36320  0.15250  Biso   1.000  H
  H25      1.0000 0.76720  0.61800  0.46380  Biso   1.000  H
  H26      1.0000 0.89330  0.61890  0.42650  Biso   1.000  H
  H27      1.0000 0.76290  0.38930  0.45890  Biso   1.000  H
  H28      1.0000 0.03270  0.59740  0.38570  Biso   1.000  H
  H29      1.0000 0.08360  0.33670  0.37440  Biso   1.000  H
  H30      1.0000 0.15250  0.55440  0.36320  Biso   1.000  H
  H31      1.0000 0.46380  0.76720  0.61800  Biso   1.000  H
  H32      1.0000 0.42650  0.89330  0.61890  Biso   1.000  H
  H33      1.0000 0.45890  0.76290  0.38930  Biso   1.000  H
  H34      1.0000 0.38570  0.03270  0.59740  Biso   1.000  H
  H35      1.0000 0.37440  0.08360  0.33670  Biso   1.000  H
  H36      1.0000 0.36320  0.15250  0.55440  Biso   1.000  H
  C1       1.0000 0.49760  0.51140  0.32830  Biso   1.000  C
  C2       1.0000 0.49530  0.53440  0.24790  Biso   1.000  C
  C3       1.0000 0.42790  0.54470  0.20840  Biso   1.000  C
  C4       1.0000 0.42700  0.56710  0.13290  Biso   1.000  C
  C5       1.0000 0.56480  0.54840  0.21150  Biso   1.000  C
  C6       1.0000 0.56410  0.57310  0.13740  Biso   1.000  C
  C7       1.0000 0.49620  0.58030  0.09700  Biso   1.000  C
  C8       1.0000 0.50940  0.60160  0.01630  Biso   1.000  C
  C9       1.0000 0.58570  0.60740  0.99960  Biso   1.000  C
  C10      1.0000 0.45440  0.61520  0.95750  Biso   1.000  C
  C11      1.0000 0.61150  0.62260  0.92620  Biso   1.000  C
  C12      1.0000 0.48090  0.62940  0.88650  Biso   1.000  C
  C13      1.0000 0.55850  0.63310  0.86910  Biso   1.000  C
  C14      1.0000 0.58310  0.64320  0.78850  Biso   1.000  C
  C15      1.0000 0.32830  0.49760  0.51140  Biso   1.000  C
  C16      1.0000 0.24790  0.49530  0.53440  Biso   1.000  C
  C17      1.0000 0.20840  0.42790  0.54470  Biso   1.000  C
  C18      1.0000 0.13290  0.42700  0.56710  Biso   1.000  C
  C19      1.0000 0.21150  0.56480  0.54840  Biso   1.000  C
  C20      1.0000 0.13740  0.56410  0.57310  Biso   1.000  C
  C21      1.0000 0.09700  0.49620  0.58030  Biso   1.000  C
  C22      1.0000 0.01630  0.50940  0.60160  Biso   1.000  C
  C23      1.0000 0.99960  0.58570  0.60740  Biso   1.000  C
  C24      1.0000 0.95750  0.45440  0.61520  Biso   1.000  C
  C25      1.0000 0.92620  0.61150  0.62260  Biso   1.000  C
  C26      1.0000 0.88650  0.48090  0.62940  Biso   1.000  C
  C27      1.0000 0.86910  0.55850  0.63310  Biso   1.000  C
  C28      1.0000 0.78850  0.58310  0.64320  Biso   1.000  C
  C29      1.0000 0.51140  0.32830  0.49760  Biso   1.000  C
  C30      1.0000 0.53440  0.24790  0.49530  Biso   1.000  C
  C31      1.0000 0.54470  0.20840  0.42790  Biso   1.000  C
  C32      1.0000 0.56710  0.13290  0.42700  Biso   1.000  C
  C33      1.0000 0.54840  0.21150  0.56480  Biso   1.000  C
  C34      1.0000 0.57310  0.13740  0.56410  Biso   1.000  C
  C35      1.0000 0.58030  0.09700  0.49620  Biso   1.000  C
  C36      1.0000 0.60160  0.01630  0.50940  Biso   1.000  C
  C37      1.0000 0.60740  0.99960  0.58570  Biso   1.000  C
  C38      1.0000 0.61520  0.95750  0.45440  Biso   1.000  C
  C39      1.0000 0.62260  0.92620  0.61150  Biso   1.000  C
  C40      1.0000 0.62940  0.88650  0.48090  Biso   1.000  C
  C41      1.0000 0.63310  0.86910  0.55850  Biso   1.000  C
  C42      1.0000 0.64320  0.78850  0.58310  Biso   1.000  C
  C43      1.0000 0.50240  0.48860  0.67170  Biso   1.000  C
  C44      1.0000 0.50470  0.46560  0.75210  Biso   1.000  C
  C45      1.0000 0.57210  0.45530  0.79160  Biso   1.000  C
  C46      1.0000 0.57300  0.43290  0.86710  Biso   1.000  C
  C47      1.0000 0.43520  0.45160  0.78850  Biso   1.000  C
  C48      1.0000 0.43590  0.42690  0.86260  Biso   1.000  C
  C49      1.0000 0.50380  0.41970  0.90300  Biso   1.000  C
  C50      1.0000 0.49060  0.39840  0.98370  Biso   1.000  C
  C51      1.0000 0.41430  0.39260  0.00040  Biso   1.000  C
  C52      1.0000 0.54560  0.38480  0.04250  Biso   1.000  C
  C53      1.0000 0.38850  0.37740  0.07380  Biso   1.000  C
  C54      1.0000 0.51910  0.37060  0.11350  Biso   1.000  C
  C55      1.0000 0.44150  0.36690  0.13090  Biso   1.000  C
  C56      1.0000 0.41690  0.35680  0.21150  Biso   1.000  C
  C57      1.0000 0.67170  0.50240  0.48860  Biso   1.000  C
  C58      1.0000 0.75210  0.50470  0.46560  Biso   1.000  C
  C59      1.0000 0.79160  0.57210  0.45530  Biso   1.000  C
  C60      1.0000 0.86710  0.57300  0.43290  Biso   1.000  C
  C61      1.0000 0.78850  0.43520  0.45160  Biso   1.000  C
  C62      1.0000 0.86260  0.43590  0.42690  Biso   1.000  C
  C63      1.0000 0.90300  0.50380  0.41970  Biso   1.000  C
  C64      1.0000 0.98370  0.49060  0.39840  Biso   1.000  C
  C65      1.0000 0.00040  0.41430  0.39260  Biso   1.000  C
  C66      1.0000 0.04250  0.54560  0.38480  Biso   1.000  C
  C67      1.0000 0.07380  0.38850  0.37740  Biso   1.000  C
  C68      1.0000 0.11350  0.51910  0.37060  Biso   1.000  C
  C69      1.0000 0.13090  0.44150  0.36690  Biso   1.000  C
  C70      1.0000 0.21150  0.41690  0.35680  Biso   1.000  C
  C71      1.0000 0.48860  0.67170  0.50240  Biso   1.000  C
  C72      1.0000 0.46560  0.75210  0.50470  Biso   1.000  C
  C73      1.0000 0.45530  0.79160  0.57210  Biso   1.000  C
  C74      1.0000 0.43290  0.86710  0.57300  Biso   1.000  C
  C75      1.0000 0.45160  0.78850  0.43520  Biso   1.000  C
  C76      1.0000 0.42690  0.86260  0.43590  Biso   1.000  C
  C77      1.0000 0.41970  0.90300  0.50380  Biso   1.000  C
  C78      1.0000 0.39840  0.98370  0.49060  Biso   1.000  C
  C79      1.0000 0.39260  0.00040  0.41430  Biso   1.000  C
  C80      1.0000 0.38480  0.04250  0.54560  Biso   1.000  C
  C81      1.0000 0.37740  0.07380  0.38850  Biso   1.000  C
  C82      1.0000 0.37060  0.11350  0.51910  Biso   1.000  C
  C83      1.0000 0.36690  0.13090  0.44150  Biso   1.000  C
  C84      1.0000 0.35680  0.21150  0.41690  Biso   1.000  C
  S1       1.0000 0.64346  0.59021  0.07990  Biso   1.000  S
  S2       1.0000 0.07990  0.64346  0.59021  Biso   1.000  S
  S3       1.0000 0.59021  0.07990  0.64346  Biso   1.000  S
  S4       1.0000 0.35654  0.40979  0.92010  Biso   1.000  S
  S5       1.0000 0.92010  0.35654  0.40979  Biso   1.000  S
  S6       1.0000 0.40979  0.92010  0.35654  Biso   1.000  S
  O1       1.0000 0.55901  0.51021  0.36411  Biso   1.000  O
  O2       1.0000 0.43443  0.49113  0.35993  Biso   1.000  O
  O3       1.0000 0.65338  0.63758  0.77568  Biso   1.000  O
  O4       1.0000 0.53522  0.65422  0.73692  Biso   1.000  O
  O5       1.0000 0.68380  0.65900  0.10700  Biso   1.000  O
  O6       1.0000 0.68630  0.52110  0.06840  Biso   1.000  O
  O7       1.0000 0.36411  0.55901  0.51021  Biso   1.000  O
  O8       1.0000 0.35993  0.43443  0.49113  Biso   1.000  O
  O9       1.0000 0.77568  0.65338  0.63758  Biso   1.000  O
  O10      1.0000 0.73692  0.53522  0.65422  Biso   1.000  O
  O11      1.0000 0.10700  0.68380  0.65900  Biso   1.000  O
  O12      1.0000 0.06840  0.68630  0.52110  Biso   1.000  O
  O13      1.0000 0.51021  0.36411  0.55901  Biso   1.000  O
  O14      1.0000 0.49113  0.35993  0.43443  Biso   1.000  O
  O15      1.0000 0.63758  0.77568  0.65338  Biso   1.000  O
  O16      1.0000 0.65422  0.73692  0.53522  Biso   1.000  O
  O17      1.0000 0.65900  0.10700  0.68380  Biso   1.000  O
  O18      1.0000 0.52110  0.06840  0.68630  Biso   1.000  O
  O19      1.0000 0.44099  0.48979  0.63589  Biso   1.000  O
  O20      1.0000 0.56557  0.50887  0.64007  Biso   1.000  O
  O21      1.0000 0.34662  0.36242  0.22432  Biso   1.000  O
  O22      1.0000 0.46478  0.34578  0.26308  Biso   1.000  O
  O23      1.0000 0.31620  0.34100  0.89300  Biso   1.000  O
  O24      1.0000 0.31370  0.47890  0.93160  Biso   1.000  O
  O25      1.0000 0.63589  0.44099  0.48979  Biso   1.000  O
  O26      1.0000 0.64007  0.56557  0.50887  Biso   1.000  O
  O27      1.0000 0.22432  0.34662  0.36242  Biso   1.000  O
  O28      1.0000 0.26308  0.46478  0.34578  Biso   1.000  O
  O29      1.0000 0.89300  0.31620  0.34100  Biso   1.000  O
  O30      1.0000 0.93160  0.31370  0.47890  Biso   1.000  O
  O31      1.0000 0.48979  0.63589  0.44099  Biso   1.000  O
  O32      1.0000 0.50887  0.64007  0.56557  Biso   1.000  O
  O33      1.0000 0.36242  0.22432  0.34662  Biso   1.000  O
  O34      1.0000 0.34578  0.26308  0.46478  Biso   1.000  O
  O35      1.0000 0.34100  0.89300  0.31620  Biso   1.000  O
  O36      1.0000 0.47890  0.93160  0.31370  Biso   1.000  O
  Ce4      1.0000 0.17534  0.17259  0.11382  Biso   1.000  Ce
  Ce5      1.0000 0.90944  0.90241  0.85227  Biso   1.000  Ce
  Ce6      1.0000 0.04239  0.03750  0.98305  Biso   1.000  Ce
  H37      1.0000 0.16030  0.30400  0.94244  Biso   1.000  H
  H38      1.0000 0.16116  0.42943  0.90305  Biso   1.000  H
  H39      1.0000 0.93160  0.29962  0.93761  Biso   1.000  H
  H40      1.0000 0.13988  0.56851  0.87644  Biso   1.000  H
  H41      1.0000 0.87917  0.61920  0.86430  Biso   1.000  H
  H42      1.0000 0.09685  0.68789  0.85196  Biso   1.000  H
  H43      1.0000 0.30963  0.00326  0.10166  Biso   1.000  H
  H44      1.0000 0.43574  0.96599  0.10318  Biso   1.000  H
  H45      1.0000 0.30527  0.99459  0.87301  Biso   1.000  H
  H46      1.0000 0.57515  0.92485  0.08235  Biso   1.000  H
  H47      1.0000 0.62598  0.90926  0.82180  Biso   1.000  H
  H48      1.0000 0.69494  0.90165  0.03971  Biso   1.000  H
  H49      1.0000 0.00623  0.15986  0.24834  Biso   1.000  H
  H50      1.0000 0.96896  0.16284  0.37444  Biso   1.000  H
  H51      1.0000 0.00139  0.93118  0.24781  Biso   1.000  H
  H52      1.0000 0.92793  0.12715  0.51408  Biso   1.000  H
  H53      1.0000 0.91672  0.86740  0.56929  Biso   1.000  H
  H54      1.0000 0.90548  0.08615  0.63460  Biso   1.000  H
  H55      1.0000 0.92447  0.77101  0.02366  Biso   1.000  H
  H56      1.0000 0.92362  0.64557  0.06305  Biso   1.000  H
  H57      1.0000 0.15317  0.77539  0.02849  Biso   1.000  H
  H58      1.0000 0.94489  0.50650  0.08966  Biso   1.000  H
  H59      1.0000 0.20561  0.45580  0.10180  Biso   1.000  H
  H60      1.0000 0.98793  0.38712  0.11414  Biso   1.000  H
  H61      1.0000 0.77515  0.07174  0.86444  Biso   1.000  H
  H62      1.0000 0.64904  0.10901  0.86292  Biso   1.000  H
  H63      1.0000 0.77951  0.08041  0.09309  Biso   1.000  H
  H64      1.0000 0.50963  0.15015  0.88375  Biso   1.000  H
  H65      1.0000 0.45880  0.16574  0.14430  Biso   1.000  H
  H66      1.0000 0.38984  0.17335  0.92638  Biso   1.000  H
  H67      1.0000 0.07855  0.91514  0.71776  Biso   1.000  H
  H68      1.0000 0.11581  0.91216  0.59166  Biso   1.000  H
  H69      1.0000 0.08339  0.14382  0.71829  Biso   1.000  H
  H70      1.0000 0.15684  0.94785  0.45202  Biso   1.000  H
  H71      1.0000 0.16806  0.20760  0.39681  Biso   1.000  H
  H72      1.0000 0.17930  0.98885  0.33149  Biso   1.000  H
  C85      1.0000 0.04474  0.20894  0.96882  Biso   1.000  C
  C86      1.0000 0.04701  0.28893  0.94449  Biso   1.000  C
  C87      1.0000 0.11440  0.32824  0.93353  Biso   1.000  C
  C88      1.0000 0.11527  0.40334  0.90988  Biso   1.000  C
  C89      1.0000 0.97750  0.32509  0.92988  Biso   1.000  C
  C90      1.0000 0.97817  0.39875  0.90396  Biso   1.000  C
  C91      1.0000 0.04606  0.43901  0.89609  Biso   1.000  C
  C92      1.0000 0.03283  0.51933  0.87346  Biso   1.000  C
  C93      1.0000 0.95680  0.53633  0.88387  Biso   1.000  C
  C94      1.0000 0.08808  0.57829  0.87538  Biso   1.000  C
  C95      1.0000 0.93097  0.60945  0.86746  Biso   1.000  C
  C96      1.0000 0.06156  0.64902  0.86001  Biso   1.000  C
  C97      1.0000 0.98395  0.66636  0.85602  Biso   1.000  C
  C98      1.0000 0.95933  0.74676  0.84459  Biso   1.000  C
  C99      1.0000 0.21409  0.02615  0.98564  Biso   1.000  C
  C100     1.0000 0.29450  0.00319  0.98832  Biso   1.000  C
  C101     1.0000 0.33402  0.99401  0.05590  Biso   1.000  C
  C102     1.0000 0.40953  0.97163  0.05717  Biso   1.000  C
  C103     1.0000 0.33088  0.98805  0.91904  Biso   1.000  C
  C104     1.0000 0.40499  0.96337  0.92015  Biso   1.000  C
  C105     1.0000 0.44541  0.95730  0.98817  Biso   1.000  C
  C106     1.0000 0.52611  0.93579  0.97532  Biso   1.000  C
  C107     1.0000 0.54279  0.92873  0.89911  Biso   1.000  C
  C108     1.0000 0.58493  0.92310  0.03055  Biso   1.000  C
  C109     1.0000 0.61619  0.91311  0.87356  Biso   1.000  C
  C110     1.0000 0.65593  0.90847  0.00429  Biso   1.000  C
  C111     1.0000 0.67331  0.90349  0.92674  Biso   1.000  C
  C112     1.0000 0.75390  0.89299  0.90230  Biso   1.000  C
  C113     1.0000 0.03103  0.04273  0.15473  Biso   1.000  C
  C114     1.0000 0.00805  0.04636  0.23511  Biso   1.000  C
  C115     1.0000 0.99775  0.11438  0.27350  Biso   1.000  C
  C116     1.0000 0.97537  0.11653  0.34899  Biso   1.000  C
  C117     1.0000 0.99408  0.97749  0.27266  Biso   1.000  C
  C118     1.0000 0.96940  0.97941  0.34676  Biso   1.000  C
  C119     1.0000 0.96220  0.04795  0.38604  Biso   1.000  C
  C120     1.0000 0.94092  0.03608  0.46697  Biso   1.000  C
  C121     1.0000 0.93488  0.94360  0.48479  Biso   1.000  C
  C122     1.0000 0.92705  0.07554  0.52473  Biso   1.000  C
  C123     1.0000 0.91970  0.91902  0.55863  Biso   1.000  C
  C124     1.0000 0.91288  0.05022  0.59618  Biso   1.000  C
  C125     1.0000 0.90920  0.97294  0.61486  Biso   1.000  C
  C126     1.0000 0.89913  0.94968  0.69588  Biso   1.000  C
  C127     1.0000 0.04004  0.86606  0.99728  Biso   1.000  C
  C128     1.0000 0.03777  0.78607  0.02161  Biso   1.000  C
  C129     1.0000 0.97038  0.74676  0.03256  Biso   1.000  C
  C130     1.0000 0.96951  0.67166  0.05621  Biso   1.000  C
  C131     1.0000 0.10728  0.74992  0.03621  Biso   1.000  C
  C132     1.0000 0.10661  0.67625  0.06214  Biso   1.000  C
  C133     1.0000 0.03872  0.63599  0.07001  Biso   1.000  C
  C134     1.0000 0.05195  0.55567  0.09264  Biso   1.000  C
  C135     1.0000 0.12798  0.53867  0.08222  Biso   1.000  C
  C136     1.0000 0.99669  0.49671  0.09072  Biso   1.000  C
  C137     1.0000 0.15380  0.46555  0.09864  Biso   1.000  C
  C138     1.0000 0.02322  0.42598  0.10609  Biso   1.000  C
  C139     1.0000 0.10082  0.40865  0.11008  Biso   1.000  C
  C140     1.0000 0.12545  0.32825  0.12151  Biso   1.000  C
  C141     1.0000 0.87068  0.04886  0.98046  Biso   1.000  C
  C142     1.0000 0.79028  0.07181  0.97778  Biso   1.000  C
  C143     1.0000 0.75076  0.08099  0.91020  Biso   1.000  C
  C144     1.0000 0.67525  0.10337  0.90893  Biso   1.000  C
  C145     1.0000 0.75389  0.08695  0.04706  Biso   1.000  C
  C146     1.0000 0.67978  0.11163  0.04595  Biso   1.000  C
  C147     1.0000 0.63936  0.11771  0.97792  Biso   1.000  C
  C148     1.0000 0.55866  0.13921  0.99077  Biso   1.000  C
  C149     1.0000 0.54198  0.14627  0.06699  Biso   1.000  C
  C150     1.0000 0.49984  0.15190  0.93554  Biso   1.000  C
  C151     1.0000 0.46858  0.16189  0.09254  Biso   1.000  C
  C152     1.0000 0.42885  0.16653  0.96181  Biso   1.000  C
  C153     1.0000 0.41147  0.17151  0.03936  Biso   1.000  C
  C154     1.0000 0.33087  0.18201  0.06380  Biso   1.000  C
  C155     1.0000 0.05374  0.03227  0.81136  Biso   1.000  C
  C156     1.0000 0.07672  0.02865  0.73099  Biso   1.000  C
  C157     1.0000 0.08703  0.96062  0.69260  Biso   1.000  C
  C158     1.0000 0.10941  0.95848  0.61710  Biso   1.000  C
  C159     1.0000 0.09069  0.09752  0.69344  Biso   1.000  C
  C160     1.0000 0.11537  0.09559  0.61934  Biso   1.000  C
  C161     1.0000 0.12258  0.02706  0.58006  Biso   1.000  C
  C162     1.0000 0.14385  0.03892  0.49913  Biso   1.000  C
  C163     1.0000 0.14990  0.13141  0.48130  Biso   1.000  C
  C164     1.0000 0.15772  0.99947  0.44136  Biso   1.000  C
  C165     1.0000 0.16507  0.15599  0.40747  Biso   1.000  C
  C166     1.0000 0.17190  0.02478  0.36992  Biso   1.000  C
  C167     1.0000 0.17557  0.10207  0.35123  Biso   1.000  C
  C168     1.0000 0.18564  0.12533  0.27022  Biso   1.000  C
  S7       1.0000 0.89879  0.45594  0.88590  Biso   1.000  S
  S8       1.0000 0.46247  0.94496  0.84106  Biso   1.000  S
  S9       1.0000 0.95233  0.90103  0.40557  Biso   1.000  S
  S10      1.0000 0.18599  0.61906  0.08020  Biso   1.000  S
  S11      1.0000 0.62230  0.13004  0.12504  Biso   1.000  S
  S12      1.0000 0.13244  0.17397  0.56053  Biso   1.000  S
  O37      1.0000 0.98334  0.17317  0.97060  Biso   1.000  O
  O38      1.0000 0.10792  0.17766  0.98961  Biso   1.000  O
  O39      1.0000 0.88905  0.75966  0.85000  Biso   1.000  O
  O40      1.0000 0.00719  0.79813  0.83272  Biso   1.000  O
  O41      1.0000 0.85844  0.42772  0.81754  Biso   1.000  O
  O42      1.0000 0.85596  0.46858  0.95483  Biso   1.000  O
  O43      1.0000 0.17826  0.02632  0.92420  Biso   1.000  O
  O44      1.0000 0.18247  0.04745  0.04848  Biso   1.000  O
  O45      1.0000 0.76670  0.89745  0.83192  Biso   1.000  O
  O46      1.0000 0.80550  0.88276  0.95037  Biso   1.000  O
  O47      1.0000 0.43538  0.87553  0.80185  Biso   1.000  O
  O48      1.0000 0.47394  0.01334  0.79707  Biso   1.000  O
  O49      1.0000 0.03223  0.98076  0.11993  Biso   1.000  O
  O50      1.0000 0.05128  0.10535  0.12206  Biso   1.000  O
  O51      1.0000 0.90478  0.87964  0.70986  Biso   1.000  O
  O52      1.0000 0.88811  0.99839  0.74668  Biso   1.000  O
  O53      1.0000 0.88354  0.86026  0.37913  Biso   1.000  O
  O54      1.0000 0.02145  0.85840  0.41778  Biso   1.000  O
  O55      1.0000 0.10144  0.90184  0.99550  Biso   1.000  O
  O56      1.0000 0.97685  0.89734  0.97649  Biso   1.000  O
  O57      1.0000 0.19573  0.31534  0.11610  Biso   1.000  O
  O58      1.0000 0.07758  0.27687  0.13338  Biso   1.000  O
  O59      1.0000 0.22634  0.64728  0.14855  Biso   1.000  O
  O60      1.0000 0.22881  0.60643  0.01127  Biso   1.000  O
  O61      1.0000 0.90651  0.04868  0.04190  Biso   1.000  O
  O62      1.0000 0.90230  0.02755  0.91762  Biso   1.000  O
  O63      1.0000 0.31807  0.17755  0.13418  Biso   1.000  O
  O64      1.0000 0.27927  0.19224  0.01573  Biso   1.000  O
  O65      1.0000 0.64939  0.19947  0.16425  Biso   1.000  O
  O66      1.0000 0.61083  0.06167  0.16903  Biso   1.000  O
  O67      1.0000 0.05254  0.09425  0.84617  Biso   1.000  O
  O68      1.0000 0.03350  0.96965  0.84404  Biso   1.000  O
  O69      1.0000 0.18000  0.19537  0.25624  Biso   1.000  O
  O70      1.0000 0.19666  0.07661  0.21942  Biso   1.000  O
  O71      1.0000 0.20123  0.21474  0.58696  Biso   1.000  O
