data_image0
_cell_length_a       17.1227
_cell_length_b       17.1227
_cell_length_c       17.1227
_cell_angle_alpha    90
_cell_angle_beta     90
_cell_angle_gamma    90

_symmetry_space_group_name_H-M    "P 1"
_symmetry_int_tables_number       1

loop_
  _symmetry_equiv_pos_as_xyz
  'x, y, z'

loop_
  _atom_site_label
  _atom_site_occupancy
  _atom_site_fract_x
  _atom_site_fract_y
  _atom_site_fract_z
  _atom_site_thermal_displace_type
  _atom_site_B_iso_or_equiv
  _atom_site_type_symbol
  Zn1      1.0000 0.56533  0.43467  0.43467  Biso   1.000  Zn
  Zn2      1.0000 0.43467  0.56533  0.43467  Biso   1.000  Zn
  Zn3      1.0000 0.43467  0.43467  0.56533  Biso   1.000  Zn
  Zn4      1.0000 0.56533  0.56533  0.56533  Biso   1.000  Zn
  H1       1.0000 0.79621  0.58474  0.58474  Biso   1.000  H
  H2       1.0000 0.92277  0.62871  0.62871  Biso   1.000  H
  H3       1.0000 0.20379  0.41526  0.58474  Biso   1.000  H
  H4       1.0000 0.02813  0.44024  0.64619  Biso   1.000  H
  H5       1.0000 0.20379  0.58474  0.41526  Biso   1.000  H
  H6       1.0000 0.79621  0.41526  0.41526  Biso   1.000  H
  H7       1.0000 0.58474  0.79621  0.58474  Biso   1.000  H
  H8       1.0000 0.55268  0.99642  0.62753  Biso   1.000  H
  H9       1.0000 0.58474  0.20379  0.41526  Biso   1.000  H
  H10      1.0000 0.41526  0.20379  0.58474  Biso   1.000  H
  H11      1.0000 0.39494  0.07132  0.64617  Biso   1.000  H
  H12      1.0000 0.41526  0.79621  0.41526  Biso   1.000  H
  H13      1.0000 0.58474  0.58474  0.79621  Biso   1.000  H
  H14      1.0000 0.41526  0.58474  0.20379  Biso   1.000  H
  H15      1.0000 0.39494  0.64617  0.07132  Biso   1.000  H
  H16      1.0000 0.58474  0.41526  0.20379  Biso   1.000  H
  H17      1.0000 0.41526  0.41526  0.79621  Biso   1.000  H
  H18      1.0000 0.39911  0.44022  0.01506  Biso   1.000  H
  C1       1.0000 0.83030  0.54430  0.54430  Biso   1.000  C
  C2       1.0000 0.91120  0.54510  0.54510  Biso   1.000  C
  C3       1.0000 0.16970  0.45570  0.54430  Biso   1.000  C
  C4       1.0000 0.08880  0.45490  0.54510  Biso   1.000  C
  C5       1.0000 0.16970  0.54430  0.45570  Biso   1.000  C
  C6       1.0000 0.08880  0.54510  0.45490  Biso   1.000  C
  C7       1.0000 0.83030  0.45570  0.45570  Biso   1.000  C
  C8       1.0000 0.91120  0.45490  0.45490  Biso   1.000  C
  C9       1.0000 0.54430  0.83030  0.54430  Biso   1.000  C
  C10      1.0000 0.54510  0.91120  0.54510  Biso   1.000  C
  C11      1.0000 0.54430  0.16970  0.45570  Biso   1.000  C
  C12      1.0000 0.54510  0.08880  0.45490  Biso   1.000  C
  C13      1.0000 0.45570  0.16970  0.54430  Biso   1.000  C
  C14      1.0000 0.45490  0.08880  0.54510  Biso   1.000  C
  C15      1.0000 0.45570  0.83030  0.45570  Biso   1.000  C
  C16      1.0000 0.45490  0.91120  0.45490  Biso   1.000  C
  C17      1.0000 0.54430  0.54430  0.83030  Biso   1.000  C
  C18      1.0000 0.54510  0.54510  0.91120  Biso   1.000  C
  C19      1.0000 0.45570  0.54430  0.16970  Biso   1.000  C
  C20      1.0000 0.45490  0.54510  0.08880  Biso   1.000  C
  C21      1.0000 0.54430  0.45570  0.16970  Biso   1.000  C
  C22      1.0000 0.54510  0.45490  0.08880  Biso   1.000  C
  C23      1.0000 0.45570  0.45570  0.83030  Biso   1.000  C
  C24      1.0000 0.45490  0.45490  0.91120  Biso   1.000  C
  C25      1.0000 0.71150  0.50000  0.50000  Biso   1.000  C
  C26      1.0000 0.78970  0.50000  0.50000  Biso   1.000  C
  C27      1.0000 0.95870  0.50000  0.50000  Biso   1.000  C
  C28      1.0000 0.28850  0.50000  0.50000  Biso   1.000  C
  C29      1.0000 0.21030  0.50000  0.50000  Biso   1.000  C
  C30      1.0000 0.04130  0.50000  0.50000  Biso   1.000  C
  C31      1.0000 0.50000  0.71150  0.50000  Biso   1.000  C
  C32      1.0000 0.50000  0.78970  0.50000  Biso   1.000  C
  C33      1.0000 0.50000  0.95870  0.50000  Biso   1.000  C
  C34      1.0000 0.50000  0.28850  0.50000  Biso   1.000  C
  C35      1.0000 0.50000  0.21030  0.50000  Biso   1.000  C
  C36      1.0000 0.50000  0.04130  0.50000  Biso   1.000  C
  C37      1.0000 0.50000  0.50000  0.71150  Biso   1.000  C
  C38      1.0000 0.50000  0.50000  0.78970  Biso   1.000  C
  C39      1.0000 0.50000  0.50000  0.95870  Biso   1.000  C
  C40      1.0000 0.50000  0.50000  0.28850  Biso   1.000  C
  C41      1.0000 0.50000  0.50000  0.21030  Biso   1.000  C
  C42      1.0000 0.50000  0.50000  0.04130  Biso   1.000  C
  O1       1.0000 0.50000  0.50000  0.50000  Biso   1.000  O
  O2       1.0000 0.67520  0.45380  0.45380  Biso   1.000  O
  O3       1.0000 0.95900  0.59070  0.59070  Biso   1.000  O
  O4       1.0000 0.32480  0.54620  0.45380  Biso   1.000  O
  O5       1.0000 0.04100  0.40930  0.59070  Biso   1.000  O
  O6       1.0000 0.32480  0.45380  0.54620  Biso   1.000  O
  O7       1.0000 0.67520  0.54620  0.54620  Biso   1.000  O
  O8       1.0000 0.45380  0.67520  0.45380  Biso   1.000  O
  O9       1.0000 0.59070  0.95900  0.59070  Biso   1.000  O
  O10      1.0000 0.45380  0.32480  0.54620  Biso   1.000  O
  O11      1.0000 0.54620  0.32480  0.45380  Biso   1.000  O
  O12      1.0000 0.40930  0.04100  0.59070  Biso   1.000  O
  O13      1.0000 0.54620  0.67520  0.54620  Biso   1.000  O
  O14      1.0000 0.45380  0.45380  0.67520  Biso   1.000  O
  O15      1.0000 0.54620  0.45380  0.32480  Biso   1.000  O
  O16      1.0000 0.40930  0.59070  0.04100  Biso   1.000  O
  O17      1.0000 0.45380  0.54620  0.32480  Biso   1.000  O
  O18      1.0000 0.54620  0.54620  0.67520  Biso   1.000  O
  O19      1.0000 0.40930  0.40930  0.95900  Biso   1.000  O
  H19      1.0000 0.05632  0.58620  0.41380  Biso   1.000  H
  H20      1.0000 0.94368  0.41380  0.41380  Biso   1.000  H
  H21      1.0000 0.58620  0.05632  0.41380  Biso   1.000  H
  H22      1.0000 0.41380  0.94368  0.41380  Biso   1.000  H
  H23      1.0000 0.58620  0.58620  0.94368  Biso   1.000  H
  H24      1.0000 0.58620  0.41380  0.05632  Biso   1.000  H
  Zn5      1.0000 0.75923  0.87603  0.87603  Biso   1.000  Zn
  Zn6      1.0000 0.88989  0.74537  0.87603  Biso   1.000  Zn
  Zn7      1.0000 0.75923  0.74537  0.74537  Biso   1.000  Zn
  Zn8      1.0000 0.88989  0.87603  0.74537  Biso   1.000  Zn
  H25      1.0000 0.90930  0.10691  0.72596  Biso   1.000  H
  H26      1.0000 0.95327  0.23347  0.68199  Biso   1.000  H
  H27      1.0000 0.73982  0.51449  0.72596  Biso   1.000  H
  H28      1.0000 0.76480  0.33883  0.66451  Biso   1.000  H
  H29      1.0000 0.90930  0.51449  0.89544  Biso   1.000  H
  H30      1.0000 0.73982  0.10691  0.89544  Biso   1.000  H
  H31      1.0000 0.12077  0.89544  0.72596  Biso   1.000  H
  H32      1.0000 0.32098  0.86338  0.68317  Biso   1.000  H
  H33      1.0000 0.52835  0.89544  0.89544  Biso   1.000  H
  H34      1.0000 0.52835  0.72596  0.72596  Biso   1.000  H
  H35      1.0000 0.39588  0.70564  0.66453  Biso   1.000  H
  H36      1.0000 0.12077  0.72596  0.89544  Biso   1.000  H
  H37      1.0000 0.90930  0.89544  0.51449  Biso   1.000  H
  H38      1.0000 0.90930  0.72596  0.10691  Biso   1.000  H
  H39      1.0000 0.97073  0.70564  0.23938  Biso   1.000  H
  H40      1.0000 0.73982  0.89544  0.10691  Biso   1.000  H
  H41      1.0000 0.73982  0.72596  0.51449  Biso   1.000  H
  H42      1.0000 0.76478  0.70981  0.29564  Biso   1.000  H
  C43      1.0000 0.86886  0.14100  0.76640  Biso   1.000  C
  C44      1.0000 0.86966  0.22190  0.76560  Biso   1.000  C
  C45      1.0000 0.78026  0.48040  0.76640  Biso   1.000  C
  C46      1.0000 0.77946  0.39950  0.76560  Biso   1.000  C
  C47      1.0000 0.86886  0.48040  0.85500  Biso   1.000  C
  C48      1.0000 0.86966  0.39950  0.85580  Biso   1.000  C
  C49      1.0000 0.78026  0.14100  0.85500  Biso   1.000  C
  C50      1.0000 0.77946  0.22190  0.85580  Biso   1.000  C
  C51      1.0000 0.15486  0.85500  0.76640  Biso   1.000  C
  C52      1.0000 0.23576  0.85580  0.76560  Biso   1.000  C
  C53      1.0000 0.49426  0.85500  0.85500  Biso   1.000  C
  C54      1.0000 0.41336  0.85580  0.85580  Biso   1.000  C
  C55      1.0000 0.49426  0.76640  0.76640  Biso   1.000  C
  C56      1.0000 0.41336  0.76560  0.76560  Biso   1.000  C
  C57      1.0000 0.15486  0.76640  0.85500  Biso   1.000  C
  C58      1.0000 0.23576  0.76560  0.85580  Biso   1.000  C
  C59      1.0000 0.86886  0.85500  0.48040  Biso   1.000  C
  C60      1.0000 0.86966  0.85580  0.39950  Biso   1.000  C
  C61      1.0000 0.86886  0.76640  0.14100  Biso   1.000  C
  C62      1.0000 0.86966  0.76560  0.22190  Biso   1.000  C
  C63      1.0000 0.78026  0.85500  0.14100  Biso   1.000  C
  C64      1.0000 0.77946  0.85580  0.22190  Biso   1.000  C
  C65      1.0000 0.78026  0.76640  0.48040  Biso   1.000  C
  C66      1.0000 0.77946  0.76560  0.39950  Biso   1.000  C
  C67      1.0000 0.82456  0.02220  0.81070  Biso   1.000  C
  C68      1.0000 0.82456  0.10040  0.81070  Biso   1.000  C
  C69      1.0000 0.82456  0.26940  0.81070  Biso   1.000  C
  C70      1.0000 0.82456  0.59920  0.81070  Biso   1.000  C
  C71      1.0000 0.82456  0.52100  0.81070  Biso   1.000  C
  C72      1.0000 0.82456  0.35200  0.81070  Biso   1.000  C
  C73      1.0000 0.03606  0.81070  0.81070  Biso   1.000  C
  C74      1.0000 0.11426  0.81070  0.81070  Biso   1.000  C
  C75      1.0000 0.28326  0.81070  0.81070  Biso   1.000  C
  C76      1.0000 0.61306  0.81070  0.81070  Biso   1.000  C
  C77      1.0000 0.53486  0.81070  0.81070  Biso   1.000  C
  C78      1.0000 0.36586  0.81070  0.81070  Biso   1.000  C
  C79      1.0000 0.82456  0.81070  0.59920  Biso   1.000  C
  C80      1.0000 0.82456  0.81070  0.52100  Biso   1.000  C
  C81      1.0000 0.82456  0.81070  0.35200  Biso   1.000  C
  C82      1.0000 0.82456  0.81070  0.02220  Biso   1.000  C
  C83      1.0000 0.82456  0.81070  0.10040  Biso   1.000  C
  C84      1.0000 0.82456  0.81070  0.26940  Biso   1.000  C
  O20      1.0000 0.82456  0.81070  0.81070  Biso   1.000  O
  O21      1.0000 0.77836  0.98590  0.85690  Biso   1.000  O
  O22      1.0000 0.91526  0.26970  0.72000  Biso   1.000  O
  O23      1.0000 0.87076  0.63550  0.85690  Biso   1.000  O
  O24      1.0000 0.73386  0.35170  0.72000  Biso   1.000  O
  O25      1.0000 0.77836  0.63550  0.76450  Biso   1.000  O
  O26      1.0000 0.87076  0.98590  0.76450  Biso   1.000  O
  O27      1.0000 0.99976  0.76450  0.85690  Biso   1.000  O
  O28      1.0000 0.28356  0.90140  0.72000  Biso   1.000  O
  O29      1.0000 0.64936  0.76450  0.76450  Biso   1.000  O
  O30      1.0000 0.64936  0.85690  0.85690  Biso   1.000  O
  O31      1.0000 0.36556  0.72000  0.72000  Biso   1.000  O
  O32      1.0000 0.99976  0.85690  0.76450  Biso   1.000  O
  O33      1.0000 0.77836  0.76450  0.63550  Biso   1.000  O
  O34      1.0000 0.77836  0.85690  0.98590  Biso   1.000  O
  O35      1.0000 0.91526  0.72000  0.26970  Biso   1.000  O
  O36      1.0000 0.87076  0.76450  0.98590  Biso   1.000  O
  O37      1.0000 0.87076  0.85690  0.63550  Biso   1.000  O
  O38      1.0000 0.73386  0.72000  0.35170  Biso   1.000  O
  H43      1.0000 0.91076  0.36702  0.89690  Biso   1.000  H
  H44      1.0000 0.73836  0.25438  0.89690  Biso   1.000  H
  H45      1.0000 0.38088  0.89690  0.89690  Biso   1.000  H
  H46      1.0000 0.26824  0.72450  0.89690  Biso   1.000  H
  H47      1.0000 0.91076  0.89690  0.36702  Biso   1.000  H
